2024_89_CemigReconfigurationCases/1_SEsCemig/LBD01/LBD01SegmentosMT.dss
new line.TR1005886 bus1=BMT2004702B.3,bus2=BMT172838241.3,Phases=1,Linecode=CAB202_3_1,Length=0.225078000,Units=km
new line.TR1005893 bus1=BMT172838241.3,bus2=BMT172838243.3,Phases=1,Linecode=CAB202_3_1,Length=0.172759000,Units=km
new line.TR1005900 bus1=BMT172838241.3,bus2=BMT172838244.3,Phases=1,Linecode=CAB202_3_1,Length=0.160056000,Units=km
new line.TR1005907 bus1=BMT172838244.3,bus2=BMT172838246.3,Phases=1,Linecode=CAB202_3_1,Length=0.085470000,Units=km
new line.TR1005914 bus1=BMT172838244.3,bus2=BMT172838247.3,Phases=1,Linecode=CAB202_3_1,Length=0.327115000,Units=km
new line.TR1005921 bus1=BMT172838244.3,bus2=BMT172838248.3,Phases=1,Linecode=CAB202_3_1,Length=0.246673000,Units=km
new line.TR1005928 bus1=BMT172838247.3,bus2=BMT3709685B.3,Phases=1,Linecode=CAB202_3_1,Length=0.323415000,Units=km
new line.TR1005935 bus1=BMT172838247.3,bus2=BMT4111891B.3,Phases=1,Linecode=CAB202_3_1,Length=0.039129000,Units=km
new line.TR1005942 bus1=BMT172838248.3,bus2=BMT172838249.3,Phases=1,Linecode=CAB202_3_1,Length=0.211699000,Units=km
new line.TR1005949 bus1=BMT172838248.3,bus2=BMT172838250.3,Phases=1,Linecode=CAB202_3_1,Length=0.254657000,Units=km
new line.TR1005956 bus1=BMT172838250.3,bus2=BMT172838251.3,Phases=1,Linecode=CAB202_3_1,Length=0.090586000,Units=km
new line.TR1005970 bus1=BMT172838251.3,bus2=BMT172838256.3,Phases=1,Linecode=CAB202_3_1,Length=0.076349000,Units=km
new line.TR1005977 bus1=BMT172838251.3,bus2=BMT172838257.3,Phases=1,Linecode=CAB202_3_1,Length=0.176838000,Units=km
new line.TR1005984 bus1=BMT2004751B.3,bus2=BMT172838258.3,Phases=1,Linecode=CAB202_3_1,Length=0.102627000,Units=km
new line.TR1005991 bus1=BMT172838239.3,bus2=BMT172838242.3,Phases=1,Linecode=CAB202_3_1,Length=0.277946000,Units=km
new line.TR1005998 bus1=BMT172838239.3,bus2=BMT2004765B.3,Phases=1,Linecode=CAB202_3_1,Length=0.335154000,Units=km
new line.TR1006005 bus1=BMT2004765B.3,bus2=BMT2004772B.3,Phases=1,Linecode=CAB202_3_1,Length=0.087352000,Units=km
new line.TR1006012 bus1=BMT2004772B.3,bus2=BMT172838237.3,Phases=1,Linecode=CAB202_3_1,Length=0.071614000,Units=km
new line.TR1006019 bus1=BMT172838237.3,bus2=BMT172838240.3,Phases=1,Linecode=CAB202_3_1,Length=0.107973000,Units=km
new line.TR1006026 bus1=BMT169989897.3,bus2=BMT169989898.3,Phases=1,Linecode=CAB202_3_1,Length=0.020623000,Units=km
new line.TR1006033 bus1=BMT169989897.3,bus2=BMT2004793B.3,Phases=1,Linecode=CAB202_3_1,Length=0.115149000,Units=km
new line.TR1006040 bus1=BMT2004793B.3,bus2=BMT169989899.3,Phases=1,Linecode=CAB202_3_1,Length=0.137344000,Units=km
new line.TR1006047 bus1=BMT169989899.3,bus2=BMT169989900.3,Phases=1,Linecode=CAB103_3_1,Length=0.042735000,Units=km
new line.TR1006054 bus1=BMT169989899.3,bus2=BMT122788411.3,Phases=1,Linecode=CAB202_3_1,Length=0.072137000,Units=km
new line.TR1006061 bus1=BMT122788411.3,bus2=BMT169989901.3,Phases=1,Linecode=CAB103_3_1,Length=0.025505000,Units=km
new line.TR1006068 bus1=BMT122788411.3,bus2=BMT3706668B.3,Phases=1,Linecode=CAB202_3_1,Length=0.225568000,Units=km
new line.TR1006075 bus1=BMT172739325.3,bus2=BMT4102091B.3,Phases=1,Linecode=CAB202_3_1,Length=0.241655000,Units=km
new line.TR1006082 bus1=BMT2004814B.3,bus2=BMT169989902.3,Phases=1,Linecode=CAB202_3_1,Length=0.211971000,Units=km
new line.TR1006089 bus1=BMT169989902.3,bus2=BMT2004828B.3,Phases=1,Linecode=CAB202_3_1,Length=0.167764000,Units=km
new line.TR1006096 bus1=BMT169989902.3,bus2=BMT169989904.3,Phases=1,Linecode=CAB202_3_1,Length=0.178739000,Units=km
new line.TR1006103 bus1=BMT2004828B.3,bus2=BMT169989903.3,Phases=1,Linecode=CAB202_3_1,Length=0.342466000,Units=km
new line.TR1006110 bus1=BMT169989904.3,bus2=BMT169989905.3,Phases=1,Linecode=CAB202_3_1,Length=0.150136000,Units=km
new line.TR1006117 bus1=BMT169989904.3,bus2=BMT169989906.3,Phases=1,Linecode=CAB202_3_1,Length=0.087352000,Units=km
new line.TR1006124 bus1=BMT169989903.3,bus2=BMT2519111B.3,Phases=1,Linecode=CAB202_3_1,Length=0.096211000,Units=km
new line.TR1006131 bus1=BMT169989903.3,bus2=BMT3707025B.3,Phases=1,Linecode=CAB202_3_1,Length=0.154356000,Units=km
new line.TR1006138 bus1=BMT169989903.3,bus2=BMT169989909.3,Phases=1,Linecode=CAB202_3_1,Length=0.212275000,Units=km
new line.TR1006145 bus1=BMT169989908.3,bus2=BMT169989910.3,Phases=1,Linecode=CAB103_3_1,Length=0.060850000,Units=km
new line.TR1006152 bus1=BMT169989908.3,bus2=BMT2004856B.3,Phases=1,Linecode=CAB202_3_1,Length=0.410176000,Units=km
new line.TR1006159 bus1=BMT2004856B.3,bus2=BMT169989911.3,Phases=1,Linecode=CAB202_3_1,Length=0.361133000,Units=km
new line.TR1006166 bus1=BMT169989911.3,bus2=BMT169989912.3,Phases=1,Linecode=CAB202_3_1,Length=0.239720000,Units=km
new line.TR1006173 bus1=BMT169989911.3,bus2=BMT4162816B.3,Phases=1,Linecode=CAB202_3_1,Length=0.273726000,Units=km
new line.TR1006180 bus1=BMT169989912.3,bus2=BMT169989914.3,Phases=1,Linecode=CAB202_3_1,Length=0.060230000,Units=km
new line.TR1006187 bus1=BMT169989912.3,bus2=BMT2004877B.3,Phases=1,Linecode=CAB202_3_1,Length=0.339605000,Units=km
new line.TR1006194 bus1=BMT2004877B.3,bus2=BMT169989915.3,Phases=1,Linecode=CAB202_3_1,Length=0.229306000,Units=km
new line.TR1006201 bus1=BMT159337358.1,bus2=BMT159337359.1,Phases=1,Linecode=CAB202_3_1,Length=0.076185000,Units=km
new line.TR1006208 bus1=BMT159337358.1,bus2=BMT157679878.1,Phases=1,Linecode=CAB202_3_1,Length=0.144693000,Units=km
new line.TR1006215 bus1=BMT157679878.1,bus2=BMT159337360.1,Phases=1,Linecode=CAB202_3_1,Length=0.339946000,Units=km
new line.TR1006222 bus1=BMT159337360.1,bus2=BMT159337361.1,Phases=1,Linecode=CAB202_3_1,Length=0.106104000,Units=km
new line.TR1006229 bus1=BMT159337360.1,bus2=BMT159337362.1,Phases=1,Linecode=CAB202_3_1,Length=0.137250000,Units=km
new line.TR1006236 bus1=BMT159337360.1,bus2=BMT3991722B.1,Phases=1,Linecode=CAB202_3_1,Length=0.010202000,Units=km
new line.TR1006243 bus1=BMT172396539.1,bus2=BMT2928142B.1,Phases=1,Linecode=CAB202_3_1,Length=0.072827000,Units=km
new line.TR1006250 bus1=BMT172396539.1,bus2=BMT172396541.1,Phases=1,Linecode=CAB202_3_1,Length=0.564635000,Units=km
new line.TR1006257 bus1=BMT172396544.1,bus2=BMT172396549.1,Phases=1,Linecode=CAB103_3_1,Length=0.033553000,Units=km
new line.TR1006264 bus1=BMT172396544.1,bus2=BMT172396550.1,Phases=1,Linecode=CAB202_3_1,Length=0.416082000,Units=km
new line.TR1006271 bus1=BMT122786458.1,bus2=BMT172396563.1,Phases=1,Linecode=CAB103_3_1,Length=0.069840000,Units=km
new line.TR1006278 bus1=BMT172396550.1,bus2=BMT172396551.1,Phases=1,Linecode=CAB103_3_1,Length=0.074357000,Units=km
new line.TR1013971 bus1=BMT2010155B.1,bus2=BMT2010162B.1,Phases=1,Linecode=CAB202_3_1,Length=0.091818000,Units=km
new line.TR1013978 bus1=BMT2010162B.1,bus2=BMT2010169B.1,Phases=1,Linecode=CAB202_3_1,Length=0.123048000,Units=km
new line.TR1013985 bus1=BMT2010169B.1,bus2=BMT2010176B.1,Phases=1,Linecode=CAB202_3_1,Length=0.111847000,Units=km
new line.TR1013992 bus1=BMT2010176B.1,bus2=BMT149465635.1,Phases=1,Linecode=CAB202_3_1,Length=0.455204000,Units=km
new line.TR1013999 bus1=BMT149465635.1,bus2=BMT149465636.1,Phases=1,Linecode=CAB103_3_1,Length=0.058333000,Units=km
new line.TR1014006 bus1=BMT2010190B.2,bus2=BMT2010197B.2,Phases=1,Linecode=CAB202_3_1,Length=0.503209000,Units=km
new line.TR1014013 bus1=BMT2010197B.2,bus2=BMT3664843B.2,Phases=1,Linecode=CAB202_3_1,Length=0.076148000,Units=km
new line.TR1014020 bus1=BMT2010204B.1,bus2=BMT2010211B.1,Phases=1,Linecode=CAB202_3_1,Length=0.126540000,Units=km
new line.TR1014027 bus1=BMT2010211B.1,bus2=BMT2010218B.1,Phases=1,Linecode=CAB202_3_1,Length=0.199326000,Units=km
new line.TR1014034 bus1=BMT2010218B.1,bus2=BMT2010225B.1,Phases=1,Linecode=CAB202_3_1,Length=0.126540000,Units=km
new line.TR1014041 bus1=BMT2010225B.1,bus2=BMT149451220.1,Phases=1,Linecode=CAB202_3_1,Length=0.123539000,Units=km
new line.TR1014048 bus1=BMT149451220.1,bus2=BMT2010239B.1,Phases=1,Linecode=CAB202_3_1,Length=0.199200000,Units=km
new line.TR1014055 bus1=BMT149451220.1,bus2=BMT2010246B.1,Phases=1,Linecode=CAB202_3_1,Length=0.107046000,Units=km
new line.TR1014062 bus1=BMT2010239B.1,bus2=BMT3666642B.1,Phases=1,Linecode=CAB202_3_1,Length=0.077037000,Units=km
new line.TR1014069 bus1=BMT2010246B.1,bus2=BMT2010253B.1,Phases=1,Linecode=CAB202_3_1,Length=0.192168000,Units=km
new line.TR1014076 bus1=BMT2010253B.1,bus2=BMT2010260B.1,Phases=1,Linecode=CAB202_3_1,Length=0.136068000,Units=km
new line.TR1014083 bus1=BMT2010260B.1,bus2=BMT149451225.1,Phases=1,Linecode=CAB202_3_1,Length=0.080809000,Units=km
new line.TR1014090 bus1=BMT2010267B.1,bus2=BMT3666684B.1,Phases=1,Linecode=CAB202_3_1,Length=0.114587000,Units=km
new line.TR1014097 bus1=BMT149451223.1,bus2=BMT149451227.1,Phases=1,Linecode=CAB202_3_1,Length=0.141211000,Units=km
new line.TR1014104 bus1=BMT149451223.1,bus2=BMT3666796B.1,Phases=1,Linecode=CAB202_3_1,Length=0.106145000,Units=km
new line.TR1014111 bus1=BMT149451228.1,bus2=BMT149451229.1,Phases=1,Linecode=CAB202_3_1,Length=0.115045000,Units=km
new line.TR1014118 bus1=BMT149451228.1,bus2=BMT2010295B.1,Phases=1,Linecode=CAB202_3_1,Length=0.472014000,Units=km
new line.TR1014125 bus1=BMT149451229.1,bus2=BMT149451233.1,Phases=1,Linecode=CAB103_3_1,Length=0.036070000,Units=km
new line.TR1014132 bus1=BMT2010295B.1,bus2=BMT2010302B.1,Phases=1,Linecode=CAB202_3_1,Length=0.197877000,Units=km
new line.TR1014139 bus1=BMT2010302B.1,bus2=BMT149451231.1,Phases=1,Linecode=CAB202_3_1,Length=0.347770000,Units=km
new line.TR1014146 bus1=BMT172868857.1,bus2=BMT172868858.1,Phases=1,Linecode=CAB103_3_1,Length=0.057031000,Units=km
new line.TR1014153 bus1=BMT172868857.1.2.3,bus2=BMT2010316B.1.2.3,Phases=3,Linecode=CAB202_3_3,Length=0.105041000,Units=km
new line.TR1014160 bus1=BMT2010316B.1.2.3,bus2=BMT2010323B.1.2.3,Phases=3,Linecode=CAB202_3_3,Length=0.110043000,Units=km
new line.TR1014167 bus1=BMT2010323B.1.2.3,bus2=BMT2010330B.1.2.3,Phases=3,Linecode=CAB202_3_3,Length=0.265102000,Units=km
new line.TR1014174 bus1=BMT2010330B.1.2.3,bus2=BMT2010337B.1.2.3,Phases=3,Linecode=CAB202_3_3,Length=0.128599000,Units=km
new line.TR1014188 bus1=BMT172868859.1.2.3,bus2=BMT2010351B.1.2.3,Phases=3,Linecode=CAB202_3_3,Length=0.066734000,Units=km
new line.TR1014195 bus1=BMT172868859.1,bus2=BMT122810167.1,Phases=1,Linecode=CAB202_3_1,Length=0.138708000,Units=km
new line.TR1014202 bus1=BMT2010351B.1.2.3,bus2=BMT2010358B.1.2.3,Phases=3,Linecode=CAB202_3_3,Length=0.240352000,Units=km
new line.TR1014216 bus1=BMT122808088.3,bus2=BMT122808095.3,Phases=1,Linecode=CAB202_3_1,Length=0.126366000,Units=km
new line.TR1014223 bus1=BMT122807990.1.2.3,bus2=BMT173076743.1.2.3,Phases=3,Linecode=CAB202_3_3,Length=0.077696000,Units=km
new line.TR1014230 bus1=BMT172869381.1.2.3,bus2=BMT2010379B.1.2.3,Phases=3,Linecode=CAB202_3_3,Length=0.040016000,Units=km
new line.TR1014237 bus1=BMT2010379B.1.2.3,bus2=BMT2010386B.1.2.3,Phases=3,Linecode=CAB202_3_3,Length=0.346038000,Units=km
new line.TR1014244 bus1=BMT2010386B.1.2.3,bus2=BMT2010393B.1.2.3,Phases=3,Linecode=CAB202_3_3,Length=0.070206000,Units=km
new line.TR1014251 bus1=BMT2010393B.1.2.3,bus2=BMT122808109.1.2.3,Phases=3,Linecode=CAB202_3_3,Length=0.077651000,Units=km
new line.TR1014258 bus1=BMT122810090.1.2.3,bus2=BMT2010407B.1.2.3,Phases=3,Linecode=CAB202_3_3,Length=0.092231000,Units=km
new line.TR1014265 bus1=BMT122808109.1.2.3,bus2=BMT122808116.1.2.3,Phases=3,Linecode=CAB202_3_3,Length=0.298444000,Units=km
new line.TR1014272 bus1=BMT2010407B.1.2.3,bus2=BMT122810097.1.2.3,Phases=3,Linecode=CAB202_3_3,Length=0.099663000,Units=km
new line.TR1014279 bus1=BMT122810076.1,bus2=BMT2010421B.1,Phases=1,Linecode=CAB202_3_1,Length=0.060157000,Units=km
new line.TR1014286 bus1=BMT122808116.1.2.3,bus2=BMT2010428B.1.2.3,Phases=3,Linecode=CAB202_3_3,Length=0.118895000,Units=km
new line.TR1014293 bus1=BMT2010421B.1,bus2=BMT122810083.1,Phases=1,Linecode=CAB202_3_1,Length=0.045029000,Units=km
new line.TR1014300 bus1=BMT2010428B.1.2.3,bus2=BMT122808123.1.2.3,Phases=3,Linecode=CAB202_3_3,Length=0.087355000,Units=km
new line.TR1014307 bus1=BMT122810062.2,bus2=BMT2010442B.2,Phases=1,Linecode=CAB202_3_1,Length=0.360278000,Units=km
new line.TR1014314 bus1=BMT122808123.1.2.3,bus2=BMT172869382.1.2.3,Phases=3,Linecode=CAB202_3_3,Length=0.138347000,Units=km
new line.TR1014321 bus1=BMT2010442B.2,bus2=BMT2012234B.2,Phases=1,Linecode=CAB202_3_1,Length=0.093978000,Units=km
new line.TR1014328 bus1=BMT172869382.1.2.3,bus2=BMT172869383.1.2.3,Phases=3,Linecode=CAB202_3_3,Length=0.357979000,Units=km
new line.TR1014335 bus1=BMT172869382.3,bus2=BMT172869384.3,Phases=1,Linecode=CAB202_3_1,Length=0.489842000,Units=km
new line.TR1014342 bus1=BMT172869382.1,bus2=BMT172869385.1,Phases=1,Linecode=CAB103_3_1,Length=0.036070000,Units=km
new line.TR1014349 bus1=BMT172869383.1,bus2=BMT172869390.1,Phases=1,Linecode=CAB202_3_1,Length=0.191124000,Units=km
new line.TR1014356 bus1=BMT172869383.1.2.3,bus2=BMT2010463B.1.2.3,Phases=3,Linecode=CAB202_3_3,Length=0.435427000,Units=km
new line.TR1014363 bus1=BMT2010463B.1.2.3,bus2=BMT172869391.1.2.3,Phases=3,Linecode=CAB202_3_3,Length=0.295792000,Units=km
new line.TR1014370 bus1=BMT172869391.1.2.3,bus2=BMT143714736.1.2.3,Phases=3,Linecode=CAB202_3_3,Length=0.075196000,Units=km
new line.TR1014377 bus1=BMT172869391.3,bus2=BMT2713123B.3,Phases=1,Linecode=CAB202_3_1,Length=0.242418000,Units=km
new line.TR1014391 bus1=BMT143714736.1.2.3,bus2=BMT2010491B.1.2.3,Phases=3,Linecode=CAB202_3_3,Length=0.073466000,Units=km
new line.TR1014398 bus1=BMT2010484B.2,bus2=BMT2012213B.2,Phases=1,Linecode=CAB202_3_1,Length=0.120463000,Units=km
new line.TR1014405 bus1=BMT2010491B.1.2.3,bus2=BMT172869393.1.2.3,Phases=3,Linecode=CAB202_3_3,Length=0.062418000,Units=km
new line.TR1014412 bus1=BMT172869393.1,bus2=BMT172869394.1,Phases=1,Linecode=CAB202_3_1,Length=0.080654000,Units=km
new line.TR1014419 bus1=BMT172869393.1.2.3,bus2=BMT172869395.1.2.3,Phases=3,Linecode=CAB202_3_3,Length=0.356403000,Units=km
new line.TR1014426 bus1=BMT172869395.3,bus2=BMT172869396.3,Phases=1,Linecode=CAB202_3_1,Length=0.057031000,Units=km
new line.TR1014433 bus1=BMT172869395.1.2.3,bus2=BMT2010512B.1.2.3,Phases=3,Linecode=CAB202_3_3,Length=0.099663000,Units=km
new line.TR1014440 bus1=BMT2010512B.1.2.3,bus2=BMT122808214.1.2.3,Phases=3,Linecode=CAB202_3_3,Length=0.099663000,Units=km
new line.TR1014447 bus1=BMT122808214.1.2.3,bus2=BMT172869397.1.2.3,Phases=3,Linecode=CAB202_3_3,Length=0.372468000,Units=km
new line.TR1014454 bus1=BMT154047980.3,bus2=BMT122809432.3,Phases=1,Linecode=CAB202_3_1,Length=0.083249000,Units=km
new line.TR1014461 bus1=BMT172869397.3,bus2=BMT172869398.3,Phases=1,Linecode=CAB202_3_1,Length=0.230578000,Units=km
new line.TR1014468 bus1=BMT172869397.1.2.3,bus2=BMT2011058B.1.2.3,Phases=3,Linecode=CAB202_3_3,Length=0.283703000,Units=km
new line.TR1014475 bus1=BMT122809439.3,bus2=BMT2010540B.3,Phases=1,Linecode=CAB202_3_1,Length=0.130435000,Units=km
new line.TR1014482 bus1=BMT2010540B.3,bus2=BMT2010547B.3,Phases=1,Linecode=CAB202_3_1,Length=0.130435000,Units=km
new line.TR1014489 bus1=BMT2010547B.3,bus2=BMT2010554B.3,Phases=1,Linecode=CAB202_3_1,Length=0.134682000,Units=km
new line.TR1014496 bus1=BMT2010554B.3,bus2=BMT2010561B.3,Phases=1,Linecode=CAB202_3_1,Length=0.161308000,Units=km
new line.TR1014503 bus1=BMT2010561B.3,bus2=BMT122809446.3,Phases=1,Linecode=CAB202_3_1,Length=0.241392000,Units=km
new line.TR1014510 bus1=BMT122809446.3,bus2=BMT122809453.3,Phases=1,Linecode=CAB202_3_1,Length=0.125049000,Units=km
new line.TR1014517 bus1=BMT122809446.3,bus2=BMT2010575B.3,Phases=1,Linecode=CAB202_3_1,Length=0.317062000,Units=km
new line.TR1014524 bus1=BMT2010575B.3,bus2=BMT2010582B.3,Phases=1,Linecode=CAB202_3_1,Length=0.462889000,Units=km
new line.TR1014531 bus1=BMT2010582B.3,bus2=BMT122809460.3,Phases=1,Linecode=CAB202_3_1,Length=0.120463000,Units=km
new line.TR1014538 bus1=BMT122809460.3,bus2=BMT122809467.3,Phases=1,Linecode=CAB004_3_1,Length=0.053873000,Units=km
new line.TR1014545 bus1=BMT122809460.3,bus2=BMT122809474.3,Phases=1,Linecode=CAB202_3_1,Length=0.110497000,Units=km
new line.TR1014552 bus1=BMT122809474.3,bus2=BMT122809481.3,Phases=1,Linecode=CAB202_3_1,Length=0.361526000,Units=km
new line.TR1014559 bus1=BMT122809474.3,bus2=BMT2010610B.3,Phases=1,Linecode=CAB202_3_1,Length=0.062675000,Units=km
new line.TR1014566 bus1=BMT122809509.3,bus2=BMT2010659B.3,Phases=1,Linecode=CAB202_3_1,Length=0.086057000,Units=km
new line.TR1014573 bus1=BMT122809481.3,bus2=BMT2010666B.3,Phases=1,Linecode=CAB202_3_1,Length=0.051010000,Units=km
new line.TR1014580 bus1=BMT2010610B.3,bus2=BMT2010617B.3,Phases=1,Linecode=CAB202_3_1,Length=0.089478000,Units=km
new line.TR1014587 bus1=BMT2010617B.3,bus2=BMT2010624B.3,Phases=1,Linecode=CAB202_3_1,Length=0.080809000,Units=km
new line.TR1014594 bus1=BMT2010624B.3,bus2=BMT2010631B.3,Phases=1,Linecode=CAB202_3_1,Length=0.070739000,Units=km
new line.TR1014601 bus1=BMT2010631B.3,bus2=BMT122809488.3,Phases=1,Linecode=CAB202_3_1,Length=0.155624000,Units=km
new line.TR1014608 bus1=BMT122809488.3,bus2=BMT122809495.3,Phases=1,Linecode=CAB202_3_1,Length=0.244226000,Units=km
new line.TR1014615 bus1=BMT168404750.3,bus2=BMT168404751.3,Phases=1,Linecode=CAB202_3_1,Length=0.418483000,Units=km
new line.TR1014622 bus1=BMT2010645B.3,bus2=BMT3667356B.3,Phases=1,Linecode=CAB202_3_1,Length=0.143618000,Units=km
new line.TR1014629 bus1=BMT2010652B.3,bus2=BMT3667419B.3,Phases=1,Linecode=CAB202_3_1,Length=0.109902000,Units=km
new line.TR1014636 bus1=BMT2010659B.3,bus2=BMT2010687B.3,Phases=1,Linecode=CAB202_3_1,Length=0.078133000,Units=km
new line.TR1014643 bus1=BMT2010666B.3,bus2=BMT2010673B.3,Phases=1,Linecode=CAB202_3_1,Length=0.055924000,Units=km
new line.TR1014650 bus1=BMT2010673B.3,bus2=BMT2010680B.3,Phases=1,Linecode=CAB202_3_1,Length=0.554313000,Units=km
new line.TR1014657 bus1=BMT2010680B.3,bus2=BMT122809502.3,Phases=1,Linecode=CAB202_3_1,Length=0.061057000,Units=km
new line.TR1014664 bus1=BMT2010687B.3,bus2=BMT3620204B.3,Phases=1,Linecode=CAB202_3_1,Length=0.351142000,Units=km
new line.TR1014671 bus1=BMT2010694B.3,bus2=BMT122809516.3,Phases=1,Linecode=CAB202_3_1,Length=0.695701000,Units=km
new line.TR1014678 bus1=BMT122809516.3,bus2=BMT2010708B.3,Phases=1,Linecode=CAB202_3_1,Length=0.074360000,Units=km
new line.TR1014685 bus1=BMT122809516.3,bus2=BMT3615332B.3,Phases=1,Linecode=CAB202_3_1,Length=0.483447000,Units=km
new line.TR1014692 bus1=BMT2010708B.3,bus2=BMT3620624B.3,Phases=1,Linecode=CAB202_3_1,Length=0.045273000,Units=km
new line.TR1014699 bus1=BMT122809530.3,bus2=BMT122809537.3,Phases=1,Linecode=CAB202_3_1,Length=0.120463000,Units=km
new line.TR1014706 bus1=BMT122809530.3,bus2=BMT3615381B.3,Phases=1,Linecode=CAB202_3_1,Length=0.144518000,Units=km
new line.TR1014713 bus1=BMT122809530.3,bus2=BMT3615598B.3,Phases=1,Linecode=CAB202_3_1,Length=0.109816000,Units=km
new line.TR1014720 bus1=BMT122809537.3,bus2=BMT122809558.3,Phases=1,Linecode=CAB202_3_1,Length=0.093182000,Units=km
new line.TR1014727 bus1=BMT122809537.3,bus2=BMT122809565.3,Phases=1,Linecode=CAB202_3_1,Length=0.101312000,Units=km
new line.TR1014734 bus1=BMT122809537.3,bus2=BMT122809572.3,Phases=1,Linecode=CAB202_3_1,Length=0.360279000,Units=km
new line.TR1014741 bus1=BMT2010729B.3,bus2=BMT122809551.3,Phases=1,Linecode=CAB202_3_1,Length=0.290113000,Units=km
new line.TR1014748 bus1=BMT2010736B.3,bus2=BMT3615556B.3,Phases=1,Linecode=CAB202_3_1,Length=0.059706000,Units=km
new line.TR1014755 bus1=BMT122809572.3,bus2=BMT122809579.3,Phases=1,Linecode=CAB202_3_1,Length=0.098527000,Units=km
new line.TR1014762 bus1=BMT122809572.3,bus2=BMT122809586.3,Phases=1,Linecode=CAB202_3_1,Length=0.250097000,Units=km
new line.TR1014769 bus1=BMT122809572.3,bus2=BMT3055794B.3,Phases=1,Linecode=CAB202_3_1,Length=0.066554000,Units=km
new line.TR1017996 bus1=BMT2013193B.3,bus2=BMT171972219.3,Phases=1,Linecode=CAB202_3_1,Length=0.150057000,Units=km
new line.TR1018003 bus1=BMT171972220.1,bus2=BMT171972221.1,Phases=1,Linecode=CAB103_3_1,Length=0.082038000,Units=km
new line.TR1018010 bus1=BMT171972220.1.2.3,bus2=BMT2806391B.1.2.3,Phases=3,Linecode=CAB203_3_3,Length=0.063813000,Units=km
new line.TR1018017 bus1=BMT122800227.2,bus2=BMT2013214B.2,Phases=1,Linecode=CAB203_3_1,Length=0.061056000,Units=km
new line.TR1018024 bus1=BMT145579389.1.2.3,bus2=BMT122800808.1.2.3,Phases=3,Linecode=CAB203_3_3,Length=0.121702000,Units=km
new line.TR1018031 bus1=BMT2013214B.2,bus2=BMT171972224.2,Phases=1,Linecode=CAB203_3_1,Length=0.091823000,Units=km
new line.TR1018038 bus1=BMT122806625.1,bus2=BMT2013228B.1,Phases=1,Linecode=CAB202_3_1,Length=0.111846000,Units=km
new line.TR1018045 bus1=BMT122800808.1.2.3,bus2=BMT2806237B.1.2.3,Phases=3,Linecode=CAB203_3_3,Length=0.099179000,Units=km
new line.TR1018052 bus1=BMT2013228B.1,bus2=BMT122806632.1,Phases=1,Linecode=CAB202_3_1,Length=0.101158000,Units=km
new line.TR1018059 bus1=BMT145579396.1.2.3,bus2=BMT2806167B.1.2.3,Phases=3,Linecode=CAB203_3_3,Length=0.050951000,Units=km
new line.TR1018066 bus1=BMT145579396.3,bus2=BMT2806223B.3,Phases=1,Linecode=CAB203_3_1,Length=0.068990000,Units=km
new line.TR1018073 bus1=BMT145579396.1.2.3,bus2=BMT2806272B.1.2.3,Phases=3,Linecode=CAB203_3_3,Length=0.231599000,Units=km
new line.TR1018080 bus1=BMT145579403.1.2.3,bus2=BMT122800836.1.2.3,Phases=3,Linecode=CAB202_3_3,Length=0.223972000,Units=km
new line.TR1018087 bus1=BMT145579403.1.2.3,bus2=BMT2806153B.1.2.3,Phases=3,Linecode=CAB203_3_3,Length=0.131641000,Units=km
new line.TR1018094 bus1=BMT161472353.1.2.3,bus2=BMT2806195B.1.2.3,Phases=3,Linecode=CAB202_3_3,Length=0.498934000,Units=km
new line.TR1018101 bus1=BMT145579417.3,bus2=BMT145579424.3,Phases=1,Linecode=CAB203_3_1,Length=0.216993000,Units=km
new line.TR1018108 bus1=BMT145579417.1.2.3,bus2=BMT145579431.1.2.3,Phases=3,Linecode=CAB203_3_3,Length=0.475134000,Units=km
new line.TR1018115 bus1=BMT122806569.2,bus2=BMT122806576.2,Phases=1,Linecode=CAB202_3_1,Length=0.417591000,Units=km
new line.TR1018122 bus1=BMT122800864.1.2.3,bus2=BMT2807105B.1.2.3,Phases=3,Linecode=CAB203_3_3,Length=0.091583000,Units=km
new line.TR1018129 bus1=BMT122806576.2,bus2=BMT122806583.2,Phases=1,Linecode=CAB202_3_1,Length=0.212978000,Units=km
new line.TR1018136 bus1=BMT122806576.2,bus2=BMT122806590.2,Phases=1,Linecode=CAB202_3_1,Length=0.050019000,Units=km
new line.TR1018143 bus1=BMT173247618.1.2.3,bus2=BMT173247619.1.2.3,Phases=3,Linecode=CAB203_3_3,Length=0.461152000,Units=km
new line.TR1018150 bus1=BMT122800878.3,bus2=BMT122800885.3,Phases=1,Linecode=CAB202_3_1,Length=0.011185000,Units=km
new line.TR1018157 bus1=BMT173247619.1.2.3,bus2=BMT2013473B.1.2.3,Phases=3,Linecode=CAB203_3_3,Length=0.100537000,Units=km
new line.TR1018164 bus1=BMT173247619.1,bus2=BMT2807084B.1,Phases=1,Linecode=CAB202_3_1,Length=0.030277000,Units=km
new line.TR1018171 bus1=BMT2013291B.3,bus2=BMT2807224B.3,Phases=1,Linecode=CAB202_3_1,Length=0.052222000,Units=km
new line.TR1018178 bus1=BMT122800948.3,bus2=BMT2013305B.3,Phases=1,Linecode=CAB202_3_1,Length=0.036070000,Units=km
new line.TR1018192 bus1=BMT2013305B.3,bus2=BMT2013312B.3,Phases=1,Linecode=CAB202_3_1,Length=0.248338000,Units=km
new line.TR1018199 bus1=BMT2013312B.3,bus2=BMT2807210B.3,Phases=1,Linecode=CAB202_3_1,Length=0.218958000,Units=km
new line.TR1018206 bus1=BMT2013319B.3,bus2=BMT2013326B.3,Phases=1,Linecode=CAB202_3_1,Length=0.210852000,Units=km
new line.TR1018213 bus1=BMT2013326B.3,bus2=BMT2807189B.3,Phases=1,Linecode=CAB202_3_1,Length=0.060851000,Units=km
new line.TR1018220 bus1=BMT122800976.3,bus2=BMT122800997.3,Phases=1,Linecode=CAB202_3_1,Length=0.075693000,Units=km
...

! LBD02 e LBD05
!new line.TRfic4 bus1=BMT122779311.1.2.3,bus2=BMT150311330.1.2.3,Phases=3,Linecode=CAB,Length=0.001,Units=km ! BMT173138418
!new line.TRfic5 bus1=BMT122779311.1.2.3,bus2=BMTFIC.1.2.3,Phases=3,Linecode=CAB,Length=0.001,Units=km

!LBD02	13.800000000	1.040000000	122779311
!LBD05	13.800000000	1.040000000	150311330
!LBD01	13.800000000	1.040000000	122765829
!LBD04	13.800000000	1.040000000	122798792
!LBD08	13.800000000	1.040000000	150313365
!LBD09	13.800000000	1.040000000	154136823