2024_89_CemigReconfigurationCases/1_SEsCemig/LBD01/LBD01ChavesMT.dss
new line.CTR108101 bus1=BMT168457388.1.2.3,bus2=BMT169302832.1.2.3,Phases=3,LineCode=tieSwitch,Length=0.001,Units=km,switch=T !numEQ 74416
new line.CTR108108 bus1=BMT122791449.2,bus2=BMT172354691.2,Phases=1,LineCode=tieSwitch1,Length=0.001,Units=km,switch=T !numEQ 15304
new line.CTR108115 bus1=BMT122791547.3,bus2=BMT122797084.3,Phases=1,LineCode=tieSwitch1,Length=0.001,Units=km,switch=T !numEQ 74425
new line.CTR108122 bus1=BMT122791561.1.2.3,bus2=BMT173114517.1.2.3,Phases=3,LineCode=tieSwitch,Length=0.001,Units=km,switch=T !numEQ 74426
new line.CTR108136 bus1=BMT122791659.3,bus2=BMT172833854.3,Phases=1,LineCode=tieSwitch1,Length=0.001,Units=km,switch=T !numEQ 72486
new line.CTR108143 bus1=BMT122795572.1,bus2=BMT170913339.1,Phases=1,LineCode=tieSwitch1,Length=0.001,Units=km,switch=T !numEQ 74430
new line.CTR108150 bus1=BMT122795789.1,bus2=BMT172702626.1,Phases=1,LineCode=tieSwitch1,Length=0.001,Units=km,switch=T !numEQ 74432
new line.CTR108157 bus1=BMT122791841.1.2.3,bus2=BMT168456196.1.2.3,Phases=3,LineCode=tieSwitch,Length=0.001,Units=km,switch=T !numEQ 74434
new line.CTR108164 bus1=BMT122791988.1.2.3,bus2=BMT168668999.1.2.3,Phases=3,LineCode=tieSwitch,Length=0.001,Units=km,switch=T !numEQ 74440
new line.CTR108171 bus1=BMT122792016.1.2.3,bus2=BMT172586181.1.2.3,Phases=3,LineCode=tieSwitch,Length=0.001,Units=km,switch=T !numEQ 74439
new line.CTR108178 bus1=BMT122792037.2,bus2=BMT122792107.2,Phases=1,LineCode=tieSwitch1,Length=0.001,Units=km,switch=T !numEQ 74454
new line.CTR108185 bus1=BMT122792464.1,bus2=BMT122794907.1,Phases=1,LineCode=tieSwitch1,Length=0.001,Units=km,switch=T !numEQ 15322
new line.CTR108192 bus1=BMT122792562.1,bus2=BMT168163144.1,Phases=1,LineCode=tieSwitch1,Length=0.001,Units=km,switch=T !numEQ 74443
new line.CTR108199 bus1=BMT122792597.1,bus2=BMT122794466.1,Phases=1,LineCode=tieSwitch1,Length=0.001,Units=km,switch=T !numEQ 15327
new line.CTR108206 bus1=BMT122792786.1.2.3,bus2=BMT122794284.1.2.3,Phases=3,LineCode=tieSwitch,Length=0.001,Units=km,switch=T !numEQ 74448
new line.CTR108213 bus1=BMT122792828.3,bus2=BMT122794039.3,Phases=1,LineCode=tieSwitch1,Length=0.001,Units=km,switch=T !numEQ 74450
new line.CTR108220 bus1=BMT122792758.1,bus2=BMT133803240.1,Phases=1,LineCode=tieSwitch1,Length=0.001,Units=km,switch=T !numEQ 74447
new line.CTR108227 bus1=BMT159736673.1,bus2=BMT170052130.1,Phases=1,LineCode=tieSwitch1,Length=0.001,Units=km,switch=T !numEQ 72462
new line.CTR108234 bus1=BMT122787025.1.2.3,bus2=BMT170541603.1.2.3,Phases=3,LineCode=tieSwitch,Length=0.001,Units=km,switch=T !numEQ 15306
new line.CTR108241 bus1=BMT122787074.1,bus2=BMT122791330.1,Phases=1,LineCode=tieSwitch1,Length=0.001,Units=km,switch=T !numEQ 15307
new line.CTR108269 bus1=BMT122789370.1,bus2=BMT170942053.1,Phases=1,LineCode=tieSwitch1,Length=0.001,Units=km,switch=T !numEQ 91291
new line.CTR108283 bus1=BMT122786248.1,bus2=BMT159337357.1,Phases=1,LineCode=tieSwitch1,Length=0.001,Units=km,switch=T !numEQ 74455
new line.CTR108311 bus1=BMT122779612.1.2.3,bus2=BMT173130697.1.2.3,Phases=3,LineCode=tieSwitch,Length=0.001,Units=km,switch=T !numEQ 288357
new line.CTR108318 bus1=BMT150313401.1.2.3,bus2=BMT150315004.1.2.3,Phases=3,LineCode=tieSwitch,Length=0.001,Units=km,switch=T !numEQ 73694
new line.CTR108325 bus1=BMT122779955.1.2.3,bus2=BMT172565470.1.2.3,Phases=3,LineCode=tieSwitch,Length=0.001,Units=km,switch=T !numEQ 85444
new line.CTR108332 bus1=BMT122780760.1.2.3,bus2=BMT122781936.1.2.3,Phases=3,LineCode=tieSwitch,Length=0.001,Units=km,switch=T !numEQ 73630
new line.CTR108339 bus1=BMT122782076.3,bus2=BMT135227019.3,Phases=1,LineCode=tieSwitch1,Length=0.001,Units=km,switch=T !numEQ 73731
new line.CTR108353 bus1=BMT160415124.1.2.3,bus2=BMT2543457.1.2.3,Phases=3,LineCode=tieSwitch,Length=0.001,Units=km,switch=T !numEQ 91456
new line.CTR108367 bus1=BMT122798323.1.2.3,bus2=BMT134911886.1.2.3,Phases=3,LineCode=tieSwitch,Length=0.001,Units=km,switch=T !numEQ 73553
new line.CTR108374 bus1=BMT122798351.1.2.3,bus2=BMT172083896.1.2.3,Phases=3,LineCode=tieSwitch,Length=0.001,Units=km,switch=T !numEQ 73647
new line.CTR108381 bus1=BMT122798414.1.2.3,bus2=BMT172661178.1.2.3,Phases=3,LineCode=tieSwitch,Length=0.001,Units=km,switch=T !numEQ 15318
new line.CTR108388 bus1=BMT159897875.1.2.3,bus2=BMT122798561.1.2.3,Phases=3,LineCode=tieSwitch,Length=0.001,Units=km,switch=T !numEQ 85434
open line.CTR108388 term=1
new line.CTR108395 bus1=BMT122798232.1.2.3,bus2=BMT122798260.1.2.3,Phases=3,LineCode=tieSwitch,Length=0.001,Units=km,switch=T !numEQ 74494
new line.CTR108416 bus1=BMT150315008.2,bus2=BMT158159484.2,Phases=1,LineCode=tieSwitch1,Length=0.001,Units=km,switch=T !numEQ 377754
new line.CTR108437 bus1=BMT160749025.3,bus2=BMT150314563.3,Phases=1,LineCode=tieSwitch1,Length=0.001,Units=km,switch=T !numEQ 74479
new line.CTR108444 bus1=BMT150313491.1.2.3,bus2=BMT165444518.1.2.3,Phases=3,LineCode=tieSwitch,Length=0.001,Units=km,switch=T !numEQ 288461
new line.CTR108458 bus1=BMT150313426.3,bus2=BMT150313432.3,Phases=1,LineCode=tieSwitch1,Length=0.001,Units=km,switch=T !numEQ 73634
new line.CTR108479 bus1=BMT150313517.1.2.3,bus2=BMT150313519.1.2.3,Phases=3,LineCode=tieSwitch,Length=0.001,Units=km,switch=T !numEQ 72360
new line.CTR108493 bus1=BMT150314523.1.2.3,bus2=BMT173011654.1.2.3,Phases=3,LineCode=tieSwitch,Length=0.001,Units=km,switch=T !numEQ 73469
new line.CTR108500 bus1=BMT150314626.1.2.3,bus2=BMT171212441.1.2.3,Phases=3,LineCode=tieSwitch,Length=0.001,Units=km,switch=T !numEQ 72525
new line.CTR108514 bus1=BMT150314652.2,bus2=BMT160150179.2,Phases=1,LineCode=tieSwitch1,Length=0.001,Units=km,switch=T !numEQ 72663
new line.CTR108521 bus1=BMT150313522.1.2.3,bus2=BMT150314287.1.2.3,Phases=3,LineCode=tieSwitch,Length=0.001,Units=km,switch=T !numEQ 74088
new line.CTR108528 bus1=BMT150314302.1.2.3,bus2=BMT166356323.1.2.3,Phases=3,LineCode=tieSwitch,Length=0.001,Units=km,switch=T !numEQ 74485
new line.CTR108535 bus1=BMT150314306.3,bus2=BMT150314387.3,Phases=1,LineCode=tieSwitch1,Length=0.001,Units=km,switch=T !numEQ 91371
new line.CTR108542 bus1=BMT150314310.1.2.3,bus2=BMT150314311.1.2.3,Phases=3,LineCode=tieSwitch,Length=0.001,Units=km,switch=T !numEQ 73853
new line.CTR108556 bus1=BMT122807598.3,bus2=BMT160150341.3,Phases=1,LineCode=tieSwitch1,Length=0.001,Units=km,switch=T !numEQ 73477
new line.CTR108570 bus1=BMT122807612.1.2.3,bus2=BMT145981273.1.2.3,Phases=3,LineCode=tieSwitch,Length=0.001,Units=km,switch=T !numEQ 15287
new line.CTR108598 bus1=BMT122807710.2,bus2=BMT172746141.2,Phases=1,LineCode=tieSwitch1,Length=0.001,Units=km,switch=T !numEQ 73881
new line.CTR108612 bus1=BMT122807934.2,bus2=BMT122811231.2,Phases=1,LineCode=tieSwitch1,Length=0.001,Units=km,switch=T !numEQ 73894
new line.CTR108619 bus1=BMT122807976.1.2.3,bus2=BMT148973877.1.2.3,Phases=3,LineCode=tieSwitch,Length=0.001,Units=km,switch=T !numEQ 291213
new line.CTR108633 bus1=BMT122808116.1,bus2=BMT122810076.1,Phases=1,LineCode=tieSwitch1,Length=0.001,Units=km,switch=T !numEQ 73878
new line.CTR108640 bus1=BMT122808214.3,bus2=BMT154047980.3,Phases=1,LineCode=tieSwitch1,Length=0.001,Units=km,switch=T !numEQ 73876
new line.CTR108647 bus1=BMT122809481.3,bus2=BMT122809509.3,Phases=1,LineCode=tieSwitch1,Length=0.001,Units=km,switch=T !numEQ 74056
new line.CTR108654 bus1=BMT122808235.1,bus2=BMT122809404.1,Phases=1,LineCode=tieSwitch1,Length=0.001,Units=km,switch=T !numEQ 73944
new line.CTR108668 bus1=BMT122808571.2,bus2=BMT172005140.2,Phases=1,LineCode=tieSwitch1,Length=0.001,Units=km,switch=T !numEQ 73930
new line.CTR108675 bus1=BMT122808648.2,bus2=BMT170198158.2,Phases=1,LineCode=tieSwitch1,Length=0.001,Units=km,switch=T !numEQ 73946
new line.CTR108682 bus1=BMT122808319.1,bus2=BMT122808487.1,Phases=1,LineCode=tieSwitch1,Length=0.001,Units=km,switch=T !numEQ 73923
new line.CTR108689 bus1=BMT122807983.3,bus2=BMT122808088.3,Phases=1,LineCode=tieSwitch1,Length=0.001,Units=km,switch=T !numEQ 74489
new line.CTR108696 bus1=BMT122807780.1,bus2=BMT122811672.1,Phases=1,LineCode=tieSwitch1,Length=0.001,Units=km,switch=T !numEQ 73864
new line.CTR108710 bus1=BMT168914311.3,bus2=BMT168914487.3,Phases=1,LineCode=tieSwitch1,Length=0.001,Units=km,switch=T !numEQ 74488
new line.CTR108717 bus1=BMT122802642.1.2.3,bus2=BMT173072482.1.2.3,Phases=3,LineCode=tieSwitch,Length=0.001,Units=km,switch=T !numEQ 85235
new line.CTR108731 bus1=BMT122811889.3,bus2=BMT122811952.3,Phases=1,LineCode=tieSwitch1,Length=0.001,Units=km,switch=T !numEQ 74009
new line.CTR108738 bus1=BMT122812421.2,bus2=BMT169132138.2,Phases=1,LineCode=tieSwitch1,Length=0.001,Units=km,switch=T !numEQ 73489
new line.CTR108745 bus1=BMT122812379.1.2.3,bus2=BMT157275278.1.2.3,Phases=3,LineCode=tieSwitch,Length=0.001,Units=km,switch=T !numEQ 73484
new line.CTR108759 bus1=BMT122800808.1,bus2=BMT122806625.1,Phases=1,LineCode=tieSwitch1,Length=0.001,Units=km,switch=T !numEQ 73931
new line.CTR108766 bus1=BMT122800864.2,bus2=BMT122806569.2,Phases=1,LineCode=tieSwitch1,Length=0.001,Units=km,switch=T !numEQ 74504
new line.CTR108787 bus1=BMT122801382.1.2.3,bus2=BMT172804886.1.2.3,Phases=3,LineCode=tieSwitch,Length=0.001,Units=km,switch=T !numEQ 73945
new line.CTR108794 bus1=BMT122804658.2,bus2=BMT149181720.2,Phases=1,LineCode=tieSwitch1,Length=0.001,Units=km,switch=T !numEQ 73451
new line.CTR108801 bus1=BMT122804777.2,bus2=BMT172739818.2,Phases=1,LineCode=tieSwitch1,Length=0.001,Units=km,switch=T !numEQ 73960
new line.CTR108808 bus1=BMT122804812.2,bus2=BMT165348734.2,Phases=1,LineCode=tieSwitch1,Length=0.001,Units=km,switch=T !numEQ 73942
new line.CTR108815 bus1=BMT122802803.1.2.3,bus2=BMT172177843.1.2.3,Phases=3,LineCode=tieSwitch,Length=0.001,Units=km,switch=T !numEQ 324005
new line.CTR108822 bus1=BMT122802936.2,bus2=BMT172860303.2,Phases=1,LineCode=tieSwitch1,Length=0.001,Units=km,switch=T !numEQ 292459
new line.CTR108829 bus1=BMT122803475.1,bus2=BMT170107299.1,Phases=1,LineCode=tieSwitch1,Length=0.001,Units=km,switch=T !numEQ 77007
new line.CTR108836 bus1=BMT122803587.3,bus2=BMT173056982.3,Phases=1,LineCode=tieSwitch1,Length=0.001,Units=km,switch=T !numEQ 73917
new line.CTR108843 bus1=BMT122803622.3,bus2=BMT160242420.3,Phases=1,LineCode=tieSwitch1,Length=0.001,Units=km,switch=T !numEQ 73929
new line.CTR108850 bus1=BMT122803916.3,bus2=BMT172962472.3,Phases=1,LineCode=tieSwitch1,Length=0.001,Units=km,switch=T !numEQ 72354
new line.CTR108857 bus1=BMT122802551.2,bus2=BMT122802579.2,Phases=1,LineCode=tieSwitch1,Length=0.001,Units=km,switch=T !numEQ 73906
new line.CTR108864 bus1=BMT122802376.2,bus2=BMT164744310.2,Phases=1,LineCode=tieSwitch1,Length=0.001,Units=km,switch=T !numEQ 73937
new line.CTR108878 bus1=BMT122801319.3,bus2=BMT172588807.3,Phases=1,LineCode=tieSwitch1,Length=0.001,Units=km,switch=T !numEQ 73943
new line.CTR108885 bus1=BMT122801228.1.2.3,bus2=BMT147549210.1.2.3,Phases=3,LineCode=tieSwitch,Length=0.001,Units=km,switch=T !numEQ 74487
new line.CTR108899 bus1=BMT122801718.1,bus2=BMT173075795.1,Phases=1,LineCode=tieSwitch1,Length=0.001,Units=km,switch=T !numEQ 73928
new line.CTR108906 bus1=BMT122801459.3,bus2=BMT147549189.3,Phases=1,LineCode=tieSwitch1,Length=0.001,Units=km,switch=T !numEQ 73948
new line.CTR108913 bus1=BMT122801123.1,bus2=BMT122806555.1,Phases=1,LineCode=tieSwitch1,Length=0.001,Units=km,switch=T !numEQ 73903
new line.CTR108934 bus1=BMT122800185.1.2.3,bus2=BMT160819132.1.2.3,Phases=3,LineCode=tieSwitch,Length=0.001,Units=km,switch=T !numEQ 291355
new line.CTR108941 bus1=BMT122800325.3,bus2=BMT170979601.3,Phases=1,LineCode=tieSwitch1,Length=0.001,Units=km,switch=T !numEQ 291356
new line.CTR108955 bus1=BMT122799744.3,bus2=BMT122799758.3,Phases=1,LineCode=tieSwitch1,Length=0.001,Units=km,switch=T !numEQ 72264
new line.CTR108962 bus1=BMT150314319.1,bus2=BMT150314324.1,Phases=1,LineCode=tieSwitch1,Length=0.001,Units=km,switch=T !numEQ 73874
new line.CTR108969 bus1=BMT122813100.1.2.3,bus2=BMT122813107.1.2.3,Phases=3,LineCode=tieSwitch,Length=0.001,Units=km,switch=T !numEQ 91384
new line.CTR108976 bus1=BMT150314309.3,bus2=BMT159218946.3,Phases=1,LineCode=tieSwitch1,Length=0.001,Units=km,switch=T !numEQ 72374
new line.CTR108983 bus1=BMT150314407.1,bus2=BMT172942328.1,Phases=1,LineCode=tieSwitch1,Length=0.001,Units=km,switch=T !numEQ 73863
new line.CTR108997 bus1=BMT122799429.3,bus2=BMT172568781.3,Phases=1,LineCode=tieSwitch1,Length=0.001,Units=km,switch=T !numEQ 73844
new line.CTR109004 bus1=BMT122799436.2,bus2=BMT164595492.2,Phases=1,LineCode=tieSwitch1,Length=0.001,Units=km,switch=T !numEQ 73501
new line.CTR109011 bus1=BMT122799401.1.2.3,bus2=BMT167918595.1.2.3,Phases=3,LineCode=tieSwitch,Length=0.001,Units=km,switch=T !numEQ 73852
new line.CTR109018 bus1=BMT133175256.3,bus2=BMT133175970.3,Phases=1,LineCode=tieSwitch1,Length=0.001,Units=km,switch=T !numEQ 73865
new line.CTR109025 bus1=BMT122799478.3,bus2=BMT160001307.3,Phases=1,LineCode=tieSwitch1,Length=0.001,Units=km,switch=T !numEQ 73959
new line.CTR109032 bus1=BMT122813177.1.2.3,bus2=BMT122813191.1.2.3,Phases=3,LineCode=tieSwitch,Length=0.001,Units=km,switch=T !numEQ 73870
new line.CTR109039 bus1=BMT122813261.1,bus2=BMT172588849.1,Phases=1,LineCode=tieSwitch1,Length=0.001,Units=km,switch=T !numEQ 72231
new line.CTR109046 bus1=BMT122813520.3,bus2=BMT172657890.3,Phases=1,LineCode=tieSwitch1,Length=0.001,Units=km,switch=T !numEQ 74484
new line.CTR109053 bus1=BMT150313532.1.2.3,bus2=BMT150313533.1.2.3,Phases=3,LineCode=tieSwitch,Length=0.001,Units=km,switch=T !numEQ 288460
new line.CTR109067 bus1=BMT150313547.3,bus2=BMT150314263.3,Phases=1,LineCode=tieSwitch1,Length=0.001,Units=km,switch=T !numEQ 73522
new line.CTR109074 bus1=BMT150313558.1.2.3,bus2=BMT169763063.1.2.3,Phases=3,LineCode=tieSwitch,Length=0.001,Units=km,switch=T !numEQ 288457
new line.CTR109081 bus1=BMT150313570.1.2.3,bus2=BMT165218344.1.2.3,Phases=3,LineCode=tieSwitch,Length=0.001,Units=km,switch=T !numEQ 288458
new line.CTR109088 bus1=BMT150313575.1,bus2=BMT150314180.1,Phases=1,LineCode=tieSwitch1,Length=0.001,Units=km,switch=T !numEQ 85009
new line.CTR109095 bus1=BMT150313576.1,bus2=BMT169785079.1,Phases=1,LineCode=tieSwitch1,Length=0.001,Units=km,switch=T !numEQ 73965
new line.CTR109102 bus1=BMT150313887.3,bus2=BMT150313889.3,Phases=1,LineCode=tieSwitch1,Length=0.001,Units=km,switch=T !numEQ 73784
new line.CTR109116 bus1=BMT150313606.1.2.3,bus2=BMT150313852.1.2.3,Phases=3,LineCode=tieSwitch,Length=0.001,Units=km,switch=T !numEQ 72212
new line.CTR109123 bus1=BMT150313627.1,bus2=BMT150313830.1,Phases=1,LineCode=tieSwitch1,Length=0.001,Units=km,switch=T !numEQ 73825
new line.CTR109130 bus1=BMT150313638.3,bus2=BMT150313784.3,Phases=1,LineCode=tieSwitch1,Length=0.001,Units=km,switch=T !numEQ 73602
new line.CTR109137 bus1=BMT150313646.3,bus2=BMT150313755.3,Phases=1,LineCode=tieSwitch1,Length=0.001,Units=km,switch=T !numEQ 73523
new line.CTR109144 bus1=BMT150313757.3,bus2=BMT150313761.3,Phases=1,LineCode=tieSwitch1,Length=0.001,Units=km,switch=T !numEQ 73590
new line.CTR109151 bus1=BMT150313647.3,bus2=BMT150313753.3,Phases=1,LineCode=tieSwitch1,Length=0.001,Units=km,switch=T !numEQ 73514
new line.CTR109158 bus1=BMT150313651.1,bus2=BMT150313738.1,Phases=1,LineCode=tieSwitch1,Length=0.001,Units=km,switch=T !numEQ 73781
new line.CTR109165 bus1=BMT150313653.1,bus2=BMT150313701.1,Phases=1,LineCode=tieSwitch1,Length=0.001,Units=km,switch=T !numEQ 73789
new line.CTR109172 bus1=BMT150313659.3,bus2=BMT150313687.3,Phases=1,LineCode=tieSwitch1,Length=0.001,Units=km,switch=T !numEQ 73646
new line.CTR109179 bus1=BMT150313663.2,bus2=BMT150313677.2,Phases=1,LineCode=tieSwitch1,Length=0.001,Units=km,switch=T !numEQ 15308
new line.CTR109186 bus1=BMT150313741.1,bus2=BMT150313751.1,Phases=1,LineCode=tieSwitch1,Length=0.001,Units=km,switch=T !numEQ 73629
new line.CTR109200 bus1=BMT150314743.3,bus2=BMT150314744.3,Phases=1,LineCode=tieSwitch1,Length=0.001,Units=km,switch=T !numEQ 84679
new line.CTR109207 bus1=BMT150314728.3,bus2=BMT150314729.3,Phases=1,LineCode=tieSwitch1,Length=0.001,Units=km,switch=T !numEQ 73654
new line.CTR109214 bus1=BMT150314704.3,bus2=BMT172979802.3,Phases=1,LineCode=tieSwitch1,Length=0.001,Units=km,switch=T !numEQ 73315
new line.CTR109221 bus1=BMT155339931.2,bus2=BMT3737391.2,Phases=1,LineCode=tieSwitch1,Length=0.001,Units=km,switch=T !numEQ 91381
open line.CTR109221 term=1
new line.CTR109228 bus1=BMT150313880.1,bus2=BMT152069260.1,Phases=1,LineCode=tieSwitch1,Length=0.001,Units=km,switch=T !numEQ 73577
new line.CTR109249 bus1=BMT150313965.2,bus2=BMT150313988.2,Phases=1,LineCode=tieSwitch1,Length=0.001,Units=km,switch=T !numEQ 91465
new line.CTR109263 bus1=BMT150313964.2,bus2=BMT150313966.2,Phases=1,LineCode=tieSwitch1,Length=0.001,Units=km,switch=T !numEQ 15299
new line.CTR109284 bus1=BMT150313865.1.2.3,bus2=BMT150313866.1.2.3,Phases=3,LineCode=tieSwitch,Length=0.001,Units=km,switch=T !numEQ 299428
new line.CTR109291 bus1=BMT172956500.1.2.3,bus2=BMT150314053.1.2.3,Phases=3,LineCode=tieSwitch,Length=0.001,Units=km,switch=T !numEQ 223443
new line.CTR109298 bus1=BMT150314089.3,bus2=BMT170961685.3,Phases=1,LineCode=tieSwitch1,Length=0.001,Units=km,switch=T !numEQ 73446
new line.CTR109305 bus1=BMT150314128.3,bus2=BMT150314135.3,Phases=1,LineCode=tieSwitch1,Length=0.001,Units=km,switch=T !numEQ 73658
new line.CTR109312 bus1=BMT150313573.2,bus2=BMT150313581.2,Phases=1,LineCode=tieSwitch1,Length=0.001,Units=km,switch=T !numEQ 73607
new line.CTR109319 bus1=BMT150314206.1,bus2=BMT150314213.1,Phases=1,LineCode=tieSwitch1,Length=0.001,Units=km,switch=T !numEQ 73595
new line.CTR109326 bus1=BMT122814045.1.2.3,bus2=BMT172025916.1.2.3,Phases=3,LineCode=tieSwitch,Length=0.001,Units=km,switch=T !numEQ 73508
new line.CTR109333 bus1=BMT122814318.1,bus2=BMT122814710.1,Phases=1,LineCode=tieSwitch1,Length=0.001,Units=km,switch=T !numEQ 15281
new line.CTR109340 bus1=BMT122814283.2,bus2=BMT122814346.2,Phases=1,LineCode=tieSwitch1,Length=0.001,Units=km,switch=T !numEQ 72990
new line.CTR109347 bus1=BMT122815704.1,bus2=BMT122815851.1,Phases=1,LineCode=tieSwitch1,Length=0.001,Units=km,switch=T !numEQ 73783
new line.CTR109354 bus1=BMT150313386.1.2.3,bus2=BMT151893486.1.2.3,Phases=3,LineCode=tieSwitch,Length=0.001,Units=km,switch=T !numEQ 73548
new line.CTR109368 bus1=BMT150311350.1,bus2=BMT172361658.1,Phases=1,LineCode=tieSwitch1,Length=0.001,Units=km,switch=T !numEQ 74032
new line.CTR109375 bus1=BMT150312948.1.2.3,bus2=BMT150312949.1.2.3,Phases=3,LineCode=tieSwitch,Length=0.001,Units=km,switch=T !numEQ 74148
new line.CTR109382 bus1=BMT150311559.1,bus2=BMT150312010.1,Phases=1,LineCode=tieSwitch1,Length=0.001,Units=km,switch=T !numEQ 74063
new line.CTR109389 bus1=BMT150312955.3,bus2=BMT150313270.3,Phases=1,LineCode=tieSwitch1,Length=0.001,Units=km,switch=T !numEQ 74139
new line.CTR109396 bus1=BMT150312959.1.2.3,bus2=BMT150312960.1.2.3,Phases=3,LineCode=tieSwitch,Length=0.001,Units=km,switch=T !numEQ 74055
new line.CTR109410 bus1=BMT150312962.3,bus2=BMT150313258.3,Phases=1,LineCode=tieSwitch1,Length=0.001,Units=km,switch=T !numEQ 74124
new line.CTR109417 bus1=BMT150313030.2,bus2=BMT150313150.2,Phases=1,LineCode=tieSwitch1,Length=0.001,Units=km,switch=T !numEQ 74007
new line.CTR109424 bus1=BMT150311374.1.2.3,bus2=BMT172763297.1.2.3,Phases=3,LineCode=tieSwitch,Length=0.001,Units=km,switch=T !numEQ 74000
new line.CTR109431 bus1=BMT150311422.1.2.3,bus2=BMT150311423.1.2.3,Phases=3,LineCode=tieSwitch,Length=0.001,Units=km,switch=T !numEQ 73972
new line.CTR109445 bus1=BMT150311509.1.2.3,bus2=BMT150311510.1.2.3,Phases=3,LineCode=tieSwitch,Length=0.001,Units=km,switch=T !numEQ 73985
new line.CTR109452 bus1=BMT150311533.1.2.3,bus2=BMT172267087.1.2.3,Phases=3,LineCode=tieSwitch,Length=0.001,Units=km,switch=T !numEQ 239317
new line.CTR109466 bus1=BMT150312045.1.2.3,bus2=BMT150312132.1.2.3,Phases=3,LineCode=tieSwitch,Length=0.001,Units=km,switch=T !numEQ 74013
new line.CTR109683 bus1=BMT122775272.1.2.3,bus2=BMT137166096.1.2.3,Phases=3,LineCode=tieSwitch,Length=0.001,Units=km,switch=T !numEQ 74082
new line.CTR109704 bus1=BMT159065940.1.2.3,bus2=BMT2543352.1.2.3,Phases=3,LineCode=tieSwitch,Length=0.001,Units=km,switch=T !numEQ 91359
open line.CTR109704 term=1
new line.CTR109711 bus1=BMT122766144.1.2.3,bus2=BMT172855381.1.2.3,Phases=3,LineCode=tieSwitch,Length=0.001,Units=km,switch=T !numEQ 15313
new line.CTR109718 bus1=BMT122766326.1.2.3,bus2=BMT172474145.1.2.3,Phases=3,LineCode=tieSwitch,Length=0.001,Units=km,switch=T !numEQ 15316
new line.CTR109725 bus1=BMT122766872.1.2.3,bus2=BMT171218925.1.2.3,Phases=3,LineCode=tieSwitch,Length=0.001,Units=km,switch=T !numEQ 91353
new line.CTR109732 bus1=BMT122766879.1.2.3,bus2=BMT122767047.1.2.3,Phases=3,LineCode=tieSwitch,Length=0.001,Units=km,switch=T !numEQ 91354
new line.CTR109739 bus1=BMT122767180.1.2.3,bus2=BMT164592231.1.2.3,Phases=3,LineCode=tieSwitch,Length=0.001,Units=km,switch=T !numEQ 91351
new line.CTR109746 bus1=BMT122767089.1.2.3,bus2=BMT164228718.1.2.3,Phases=3,LineCode=tieSwitch,Length=0.001,Units=km,switch=T !numEQ 74108
new line.CTR109753 bus1=BMT122767096.1.2.3,bus2=BMT122769511.1.2.3,Phases=3,LineCode=tieSwitch,Length=0.001,Units=km,switch=T !numEQ 91310
new line.CTR109760 bus1=BMT122767124.1,bus2=BMT122769476.1,Phases=1,LineCode=tieSwitch1,Length=0.001,Units=km,switch=T !numEQ 74130
new line.CTR109767 bus1=BMT122767222.1.2.3,bus2=BMT166027467.1.2.3,Phases=3,LineCode=tieSwitch,Length=0.001,Units=km,switch=T !numEQ 74083
new line.CTR109774 bus1=BMT122767488.1.2.3,bus2=BMT122767523.1.2.3,Phases=3,LineCode=tieSwitch,Length=0.001,Units=km,switch=T !numEQ 91361
new line.CTR109781 bus1=BMT122769175.1.2.3,bus2=BMT170119312.1.2.3,Phases=3,LineCode=tieSwitch,Length=0.001,Units=km,switch=T !numEQ 15294
new line.CTR109788 bus1=BMT122767565.1.2.3,bus2=BMT122769028.1.2.3,Phases=3,LineCode=tieSwitch,Length=0.001,Units=km,switch=T !numEQ 74005
new line.CTR109795 bus1=BMT122767586.1.2.3,bus2=BMT172561808.1.2.3,Phases=3,LineCode=tieSwitch,Length=0.001,Units=km,switch=T !numEQ 74109
new line.CTR109809 bus1=BMT122767579.1.2.3,bus2=BMT172661020.1.2.3,Phases=3,LineCode=tieSwitch,Length=0.001,Units=km,switch=T !numEQ 74023
new line.CTR122073 bus1=BMT150313633.3,bus2=BMT150313828.3,Phases=1,LineCode=tieSwitch1,Length=0.001,Units=km,switch=T !numEQ 79952
new line.CTR123067 bus1=BMT122807990.1.2.3,bus2=BMT172869381.1.2.3,Phases=3,LineCode=tieSwitch,Length=0.001,Units=km,switch=T !numEQ 72571
new line.CTR128546 bus1=BMT150312700.1,bus2=BMT152423471.1,Phases=1,LineCode=tieSwitch1,Length=0.001,Units=km,switch=T !numEQ 128231
new line.CTR128758 bus1=BMT122800885.3,bus2=BMT122800934.3,Phases=1,LineCode=tieSwitch1,Length=0.001,Units=km,switch=T !numEQ 74503
new line.CTR128786 bus1=BMT122800878.1.2.3,bus2=BMT173247618.1.2.3,Phases=3,LineCode=tieSwitch,Length=0.001,Units=km,switch=T !numEQ 116913
new line.CTR128800 bus1=BMT122803090.2,bus2=BMT172661371.2,Phases=1,LineCode=tieSwitch1,Length=0.001,Units=km,switch=T !numEQ 250014
new line.CTR129269 bus1=BMT122780963.1,bus2=BMT122781922.1,Phases=1,LineCode=tieSwitch1,Length=0.001,Units=km,switch=T !numEQ 174620
new line.CTR145544 bus1=BMT122799142.1,bus2=BMT167587023.1,Phases=1,LineCode=tieSwitch1,Length=0.001,Units=km,switch=T !numEQ 199092
new line.CTR14574 bus1=BMT122798197.1.2.3,bus2=BMT172542870.1.2.3,Phases=3,LineCode=tieSwitch,Length=0.001,Units=km,switch=T !numEQ 74410
new line.CTR14595 bus1=BMT122798540.2,bus2=BMT122798687.2,Phases=1,LineCode=tieSwitch1,Length=0.001,Units=km,switch=T !numEQ 73564
new line.CTR146447 bus1=BMT150314762.3,bus2=BMT150314768.3,Phases=1,LineCode=tieSwitch1,Length=0.001,Units=km,switch=T !numEQ 131994
new line.CTR147035 bus1=BMT122797686.1,bus2=BMT122797896.1,Phases=1,LineCode=tieSwitch1,Length=0.001,Units=km,switch=T !numEQ 117589
new line.CTR155960 bus1=BMT122765885.1,bus2=BMT122779290.1,Phases=1,LineCode=tieSwitch1,Length=0.001,Units=km,switch=T !numEQ 174123
new line.CTR156275 bus1=BMT159337362.1,bus2=BMT159337802.1,Phases=1,LineCode=tieSwitch1,Length=0.001,Units=km,switch=T !numEQ 174055
new line.CTR156814 bus1=BMT122815123.2,bus2=BMT122815137.2,Phases=1,LineCode=tieSwitch1,Length=0.001,Units=km,switch=T !numEQ 73580
new line.CTR156856 bus1=BMT122772276.3,bus2=BMT122772360.3,Phases=1,LineCode=tieSwitch1,Length=0.001,Units=km,switch=T !numEQ 197190
new line.CTR156863 bus1=BMT122772227.3,bus2=BMT122772388.3,Phases=1,LineCode=tieSwitch1,Length=0.001,Units=km,switch=T !numEQ 197188
new line.CTR156884 bus1=BMT122786563.1,bus2=BMT172480622.1,Phases=1,LineCode=tieSwitch1,Length=0.001,Units=km,switch=T !numEQ 198985
new line.CTR156891 bus1=BMT122768055.1,bus2=BMT122768839.1,Phases=1,LineCode=tieSwitch1,Length=0.001,Units=km,switch=T !numEQ 200735
new line.CTR156954 bus1=BMT150313196.3,bus2=BMT150313204.3,Phases=1,LineCode=tieSwitch1,Length=0.001,Units=km,switch=T !numEQ 206389
new line.CTR156968 bus1=BMT122816439.1,bus2=BMT129990837.1,Phases=1,LineCode=tieSwitch1,Length=0.001,Units=km,switch=T !numEQ 197409
new line.CTR156989 bus1=BMT150312990.1,bus2=BMT150312994.1,Phases=1,LineCode=tieSwitch1,Length=0.001,Units=km,switch=T !numEQ 206388
new line.CTR156996 bus1=BMT150313046.2,bus2=BMT150313075.2,Phases=1,LineCode=tieSwitch1,Length=0.001,Units=km,switch=T !numEQ 207289
new line.CTR157010 bus1=BMT122816509.2,bus2=BMT122816621.2,Phases=1,LineCode=tieSwitch1,Length=0.001,Units=km,switch=T !numEQ 207288
new line.CTR157080 bus1=BMT150311855.3,bus2=BMT150311871.3,Phases=1,LineCode=tieSwitch1,Length=0.001,Units=km,switch=T !numEQ 208157
new line.CTR171052 bus1=BMT122804357.3,bus2=BMT164846910.3,Phases=1,LineCode=tieSwitch1,Length=0.001,Units=km,switch=T !numEQ 174492
new line.CTR171066 bus1=BMT122804427.3,bus2=BMT150654082.3,Phases=1,LineCode=tieSwitch1,Length=0.001,Units=km,switch=T !numEQ 174753
new line.CTR171178 bus1=BMT122787179.1.2.3,bus2=BMT165951567.1.2.3,Phases=3,LineCode=tieSwitch,Length=0.001,Units=km,switch=T !numEQ 201352
new line.CTR171297 bus1=BMT122784183.3,bus2=BMT162166220.3,Phases=1,LineCode=tieSwitch1,Length=0.001,Units=km,switch=T !numEQ 201355
new line.CTR171479 bus1=BMT122810447.1.2.3,bus2=BMT149465617.1.2.3,Phases=3,LineCode=tieSwitch,Length=0.001,Units=km,switch=T !numEQ 291205
new line.CTR171563 bus1=BMT150311386.3,bus2=BMT166858901.3,Phases=1,LineCode=tieSwitch1,Length=0.001,Units=km,switch=T !numEQ 132001
new line.CTR171626 bus1=BMT150311394.3,bus2=BMT166053702.3,Phases=1,LineCode=tieSwitch1,Length=0.001,Units=km,switch=T !numEQ 133671
new line.CTR172270 bus1=BMT122773060.1,bus2=BMT168867692.1,Phases=1,LineCode=tieSwitch1,Length=0.001,Units=km,switch=T !numEQ 205575
new line.CTR103803 bus1=BMT122799975.1.2.3,bus2=BMT122799989.1.2.3,Phases=3,LineCode=tieSwitch,Length=0.001,Units=km,switch=T !numEQ 130598
new line.CTR104377 bus1=BMT150311339.1,bus2=BMT150313337.1,Phases=1,LineCode=tieSwitch1,Length=0.001,Units=km,switch=T !numEQ 101630
new line.CTR11690 bus1=BMT170942083.1,bus2=BMT122791120.1,Phases=1,LineCode=tieSwitch1,Length=0.001,Units=km,switch=T !numEQ 174605
new line.CTR13937 bus1=BMT150313665.2,bus2=BMT158132796.2,Phases=1,LineCode=tieSwitch1,Length=0.001,Units=km,switch=T !numEQ 134803
new line.CTR139517 bus1=BMT122766375.1.2.3,bus2=BMT169684088.1.2.3,Phases=3,LineCode=tieSwitch,Length=0.001,Units=km,switch=T !numEQ 79958
new line.CTR140000 bus1=BMT122806870.1,bus2=BMT169774793.1,Phases=1,LineCode=tieSwitch1,Length=0.001,Units=km,switch=T !numEQ 288464
new line.CTR140315 bus1=BMT122772892.1.2.3,bus2=BMT149984436.1.2.3,Phases=3,LineCode=tieSwitch,Length=0.001,Units=km,switch=T !numEQ 128361
new line.CTR153888 bus1=BMT122810629.2,bus2=BMT172414236.2,Phases=1,LineCode=tieSwitch1,Length=0.001,Units=km,switch=T !numEQ 134237
new line.CTR154609 bus1=BMT122776070.1,bus2=BMT122778513.1,Phases=1,LineCode=tieSwitch1,Length=0.001,Units=km,switch=T !numEQ 196679
new line.CTR154644 bus1=BMT122776553.1,bus2=BMT122778464.1,Phases=1,LineCode=tieSwitch1,Length=0.001,Units=km,switch=T !numEQ 197394
new line.CTR154791 bus1=BMT122770316.2,bus2=BMT165436990.2,Phases=1,LineCode=tieSwitch1,Length=0.001,Units=km,switch=T !numEQ 208401
new line.CTR154798 bus1=BMT122789748.1,bus2=BMT122790231.1,Phases=1,LineCode=tieSwitch1,Length=0.001,Units=km,switch=T !numEQ 197180
new line.CTR154882 bus1=BMT150312526.1,bus2=BMT150312538.1,Phases=1,LineCode=tieSwitch1,Length=0.001,Units=km,switch=T !numEQ 173459
new line.CTR155057 bus1=BMT122783315.2,bus2=BMT122783490.2,Phases=1,LineCode=tieSwitch1,Length=0.001,Units=km,switch=T !numEQ 198972
new line.CTR155064 bus1=BMT150312139.1,bus2=BMT150312205.1,Phases=1,LineCode=tieSwitch1,Length=0.001,Units=km,switch=T !numEQ 175129
new line.CTR155071 bus1=BMT122767320.3,bus2=BMT122767418.3,Phases=1,LineCode=tieSwitch1,Length=0.001,Units=km,switch=T !numEQ 201976
new line.CTR155295 bus1=BMT150314320.1.2.3,bus2=BMT150314321.1.2.3,Phases=3,LineCode=tieSwitch,Length=0.001,Units=km,switch=T !numEQ 73483
new line.CTR155414 bus1=BMT150314299.1,bus2=BMT159069264.1,Phases=1,LineCode=tieSwitch1,Length=0.001,Units=km,switch=T !numEQ 134242
new line.CTR155526 bus1=BMT150313409.2,bus2=BMT150314978.2,Phases=1,LineCode=tieSwitch1,Length=0.001,Units=km,switch=T !numEQ 174060
new line.CTR169386 bus1=BMT122767481.1.2.3,bus2=BMT138047529.1.2.3,Phases=3,LineCode=tieSwitch,Length=0.001,Units=km,switch=T !numEQ 103730
new line.CTR169456 bus1=BMT122773641.1,bus2=BMT151557405.1,Phases=1,LineCode=tieSwitch1,Length=0.001,Units=km,switch=T !numEQ 172296
new line.CTR169463 bus1=BMT169624834.1,bus2=BMT172692551.1,Phases=1,LineCode=tieSwitch1,Length=0.001,Units=km,switch=T !numEQ 173484
new line.CTR169498 bus1=BMT122799086.1,bus2=BMT122816026.1,Phases=1,LineCode=tieSwitch1,Length=0.001,Units=km,switch=T !numEQ 173485
new line.CTR169652 bus1=BMT122776420.1,bus2=BMT172672170.1,Phases=1,LineCode=tieSwitch1,Length=0.001,Units=km,switch=T !numEQ 74037
new line.CTR169785 bus1=BMT159052907.1.2.3,bus2=BMT122779465.1.2.3,Phases=3,LineCode=tieSwitch,Length=0.001,Units=km,switch=T !numEQ 74413
new line.CTR169820 bus1=BMT150314751.3,bus2=BMT150314752.3,Phases=1,LineCode=tieSwitch1,Length=0.001,Units=km,switch=T !numEQ 174110
new line.CTR169974 bus1=BMT122780949.1,bus2=BMT122780956.1,Phases=1,LineCode=tieSwitch1,Length=0.001,Units=km,switch=T !numEQ 174619
new line.CTR170058 bus1=BMT122810174.1,bus2=BMT168188269.1,Phases=1,LineCode=tieSwitch1,Length=0.001,Units=km,switch=T !numEQ 174162
new line.CTR170114 bus1=BMT122795390.3,bus2=BMT145230691.3,Phases=1,LineCode=tieSwitch1,Length=0.001,Units=km,switch=T !numEQ 116112
new line.CTR170135 bus1=BMT122810132.1.2.3,bus2=BMT172943093.1.2.3,Phases=3,LineCode=tieSwitch,Length=0.001,Units=km,switch=T !numEQ 73892
new line.CTR170436 bus1=BMT122802565.2,bus2=BMT164464136.2,Phases=1,LineCode=tieSwitch1,Length=0.001,Units=km,switch=T !numEQ 73935
new line.CTR170450 bus1=BMT122779969.2,bus2=BMT172559429.2,Phases=1,LineCode=tieSwitch1,Length=0.001,Units=km,switch=T !numEQ 101614
new line.CTR170457 bus1=BMT122781061.1,bus2=BMT122781264.1,Phases=1,LineCode=tieSwitch1,Length=0.001,Units=km,switch=T !numEQ 101611
new line.CTR170464 bus1=BMT122784659.1,bus2=BMT159936342.1,Phases=1,LineCode=tieSwitch1,Length=0.001,Units=km,switch=T !numEQ 101623
new line.CTR170471 bus1=BMT122784540.2,bus2=BMT122785338.2,Phases=1,LineCode=tieSwitch1,Length=0.001,Units=km,switch=T !numEQ 101622
new line.CTR170478 bus1=BMT122780732.1.2.3,bus2=BMT127736130.1.2.3,Phases=3,LineCode=tieSwitch,Length=0.001,Units=km,switch=T !numEQ 101617
new line.CTR170485 bus1=BMT122782174.3,bus2=BMT122782202.3,Phases=1,LineCode=tieSwitch1,Length=0.001,Units=km,switch=T !numEQ 101613
new line.CTR170772 bus1=BMT122804203.3,bus2=BMT172675753.3,Phases=1,LineCode=tieSwitch1,Length=0.001,Units=km,switch=T !numEQ 73447
new line.CTR170779 bus1=BMT122804189.3,bus2=BMT122804196.3,Phases=1,LineCode=tieSwitch1,Length=0.001,Units=km,switch=T !numEQ 175552
new line.CTR170947 bus1=BMT122773550.1,bus2=BMT122773557.1,Phases=1,LineCode=tieSwitch1,Length=0.001,Units=km,switch=T !numEQ 103969
new line.CTR170954 bus1=BMT122766228.1,bus2=BMT122773543.1,Phases=1,LineCode=tieSwitch1,Length=0.001,Units=km,switch=T !numEQ 201358
new line.CTR170989 bus1=BMT122766956.1,bus2=BMT169931368.1,Phases=1,LineCode=tieSwitch1,Length=0.001,Units=km,switch=T !numEQ 196687
new line.CTR188118 bus1=BMT150314351.1,bus2=BMT150314371.1,Phases=1,LineCode=tieSwitch1,Length=0.001,Units=km,switch=T !numEQ 205570
new line.CTR188125 bus1=BMT122771408.3,bus2=BMT168451368.3,Phases=1,LineCode=tieSwitch1,Length=0.001,Units=km,switch=T !numEQ 198965
new line.CTR188167 bus1=BMT122766907.1,bus2=BMT154134901.1,Phases=1,LineCode=tieSwitch1,Length=0.001,Units=km,switch=T !numEQ 199690
new line.CTR188482 bus1=BMT122787249.2,bus2=BMT172474745.2,Phases=1,LineCode=tieSwitch1,Length=0.001,Units=km,switch=T !numEQ 101640
new line.CTR188510 bus1=BMT122779584.3,bus2=BMT122785660.3,Phases=1,LineCode=tieSwitch1,Length=0.001,Units=km,switch=T !numEQ 199672
new line.CTR188811 bus1=BMT122783385.2,bus2=BMT122783448.2,Phases=1,LineCode=tieSwitch1,Length=0.001,Units=km,switch=T !numEQ 198969
new line.CTR18893 bus1=BMT122766137.1.2.3,bus2=BMT158922144.1.2.3,Phases=3,LineCode=tieSwitch,Length=0.001,Units=km,switch=T !numEQ 79993
new line.CTR109473 bus1=BMT150312055.3,bus2=BMT150312085.3,Phases=1,LineCode=tieSwitch1,Length=0.001,Units=km,switch=T !numEQ 74066
new line.CTR109480 bus1=BMT150312096.3,bus2=BMT150312112.3,Phases=1,LineCode=tieSwitch1,Length=0.001,Units=km,switch=T !numEQ 74097
new line.CTR109487 bus1=BMT150312154.2,bus2=BMT150312166.2,Phases=1,LineCode=tieSwitch1,Length=0.001,Units=km,switch=T !numEQ 74002
new line.CTR109494 bus1=BMT150311554.1.2.3,bus2=BMT171640525.1.2.3,Phases=3,LineCode=tieSwitch,Length=0.001,Units=km,switch=T !numEQ 74003
new line.CTR109501 bus1=BMT150311570.2,bus2=BMT166330009.2,Phases=1,LineCode=tieSwitch1,Length=0.001,Units=km,switch=T !numEQ 74513
new line.CTR109508 bus1=BMT150311581.1,bus2=BMT150311891.1,Phases=1,LineCode=tieSwitch1,Length=0.001,Units=km,switch=T !numEQ 74020
new line.CTR109515 bus1=BMT150311585.1,bus2=BMT150311889.1,Phases=1,LineCode=tieSwitch1,Length=0.001,Units=km,switch=T !numEQ 74045
new line.CTR109536 bus1=BMT150311600.1,bus2=BMT150311794.1,Phases=1,LineCode=tieSwitch1,Length=0.001,Units=km,switch=T !numEQ 74624
new line.CTR109543 bus1=BMT150311607.1.2.3,bus2=BMT163748858.1.2.3,Phases=3,LineCode=tieSwitch,Length=0.001,Units=km,switch=T !numEQ 74128
new line.CTR109550 bus1=BMT150311631.2,bus2=BMT150311774.2,Phases=1,LineCode=tieSwitch1,Length=0.001,Units=km,switch=T !numEQ 74113
new line.CTR109557 bus1=BMT150311636.1,bus2=BMT150311761.1,Phases=1,LineCode=tieSwitch1,Length=0.001,Units=km,switch=T !numEQ 74095
new line.CTR109564 bus1=BMT150311660.1,bus2=BMT150311750.1,Phases=1,LineCode=tieSwitch1,Length=0.001,Units=km,switch=T !numEQ 74054
new line.CTR109571 bus1=BMT150311605.3,bus2=BMT171642916.3,Phases=1,LineCode=tieSwitch1,Length=0.001,Units=km,switch=T !numEQ 74024
new line.CTR109578 bus1=BMT150311850.3,bus2=BMT155318603.3,Phases=1,LineCode=tieSwitch1,Length=0.001,Units=km,switch=T !numEQ 74140
new line.CTR109585 bus1=BMT150311567.2,bus2=BMT150311578.2,Phases=1,LineCode=tieSwitch1,Length=0.001,Units=km,switch=T !numEQ 74038
new line.CTR109592 bus1=BMT150311946.3,bus2=BMT170525593.3,Phases=1,LineCode=tieSwitch1,Length=0.001,Units=km,switch=T !numEQ 74040
new line.CTR109599 bus1=BMT150311434.1.2.3,bus2=BMT150312556.1.2.3,Phases=3,LineCode=tieSwitch,Length=0.001,Units=km,switch=T !numEQ 73979
new line.CTR109606 bus1=BMT150311426.1.2.3,bus2=BMT167156870.1.2.3,Phases=3,LineCode=tieSwitch,Length=0.001,Units=km,switch=T !numEQ 73973
new line.CTR109613 bus1=BMT150312578.1.2.3,bus2=BMT159686841.1.2.3,Phases=3,LineCode=tieSwitch,Length=0.001,Units=km,switch=T !numEQ 285942
new line.CTR109620 bus1=BMT122775405.1.2.3,bus2=BMT137975884.1.2.3,Phases=3,LineCode=tieSwitch,Length=0.001,Units=km,switch=T !numEQ 15803
new line.CTR109627 bus1=BMT171126854.1.2.3,bus2=BMT122775069.1.2.3,Phases=3,LineCode=tieSwitch,Length=0.001,Units=km,switch=T !numEQ 84822
new line.CTR109634 bus1=BMT122775594.1.2.3,bus2=BMT122773200.1.2.3,Phases=3,LineCode=tieSwitch,Length=0.001,Units=km,switch=T !numEQ 74033
new line.CTR109641 bus1=BMT122775748.1,bus2=BMT172711383.1,Phases=1,LineCode=tieSwitch1,Length=0.001,Units=km,switch=T !numEQ 74100
new line.CTR109676 bus1=BMT122767292.3,bus2=BMT170553377.3,Phases=1,LineCode=tieSwitch1,Length=0.001,Units=km,switch=T !numEQ 74021
new line.CTR121163 bus1=BMT122766515.1,bus2=BMT171907625.1,Phases=1,LineCode=tieSwitch1,Length=0.001,Units=km,switch=T !numEQ 130404
new line.CTR121366 bus1=BMT122807899.3,bus2=BMT173170342.3,Phases=1,LineCode=tieSwitch1,Length=0.001,Units=km,switch=T !numEQ 74034
new line.CTR134211 bus1=BMT122767894.1,bus2=BMT122767901.1,Phases=1,LineCode=tieSwitch1,Length=0.001,Units=km,switch=T !numEQ 15805
new line.CTR134792 bus1=BMT122785093.1,bus2=BMT122785163.1,Phases=1,LineCode=tieSwitch1,Length=0.001,Units=km,switch=T !numEQ 174554
new line.CTR13503 bus1=BMT150313515.1.2.3,bus2=BMT150313516.1.2.3,Phases=3,LineCode=tieSwitch,Length=0.001,Units=km,switch=T !numEQ 133657
new line.CTR1351 bus1=BMT158299664.1.2.3,bus2=BMT159912150.1.2.3,Phases=3,LineCode=tieSwitch,Length=0.001,Units=km,switch=T !numEQ 291198
new line.CTR158886 bus1=BMT122792576.1.2.3,bus2=BMT122794620.1.2.3,Phases=3,LineCode=tieSwitch,Length=0.001,Units=km,switch=T !numEQ 171674
new line.CTR160293 bus1=BMT150313420.1.2.3,bus2=BMT161108631.1.2.3,Phases=3,LineCode=tieSwitch,Length=0.001,Units=km,switch=T !numEQ 288459
new line.CTR160370 bus1=BMT122772647.1.2.3,bus2=BMT122772661.1.2.3,Phases=3,LineCode=tieSwitch,Length=0.001,Units=km,switch=T !numEQ 15804
new line.CTR174090 bus1=BMT122799541.1,bus2=BMT122813058.1,Phases=1,LineCode=tieSwitch1,Length=0.001,Units=km,switch=T !numEQ 101716
new line.CTR176190 bus1=BMT150313444.3,bus2=BMT150313479.3,Phases=1,LineCode=tieSwitch1,Length=0.001,Units=km,switch=T !numEQ 173972
new line.CTR176757 bus1=BMT122805701.2,bus2=BMT172180319.2,Phases=1,LineCode=tieSwitch1,Length=0.001,Units=km,switch=T !numEQ 73947
new line.CTR176813 bus1=BMT122789615.1,bus2=BMT122790301.1,Phases=1,LineCode=tieSwitch1,Length=0.001,Units=km,switch=T !numEQ 174606
new line.CTR176848 bus1=BMT150312973.3,bus2=BMT150313254.3,Phases=1,LineCode=tieSwitch1,Length=0.001,Units=km,switch=T !numEQ 173338
new line.CTR177296 bus1=BMT150312529.1,bus2=BMT173134655.1,Phases=1,LineCode=tieSwitch1,Length=0.001,Units=km,switch=T !numEQ 173456
new line.CTR177303 bus1=BMT150312576.3,bus2=BMT150312847.3,Phases=1,LineCode=tieSwitch1,Length=0.001,Units=km,switch=T !numEQ 173455
new line.CTR177310 bus1=BMT150314789.3,bus2=BMT172762052.3,Phases=1,LineCode=tieSwitch1,Length=0.001,Units=km,switch=T !numEQ 173339
new line.CTR177485 bus1=BMT150311414.1,bus2=BMT150312854.1,Phases=1,LineCode=tieSwitch1,Length=0.001,Units=km,switch=T !numEQ 173457
new line.CTR17759 bus1=BMT150313622.2,bus2=BMT150313623.2,Phases=1,LineCode=tieSwitch1,Length=0.001,Units=km,switch=T !numEQ 73455
new line.CTR177632 bus1=BMT122766445.1.2.3,bus2=BMT148382047.1.2.3,Phases=3,LineCode=tieSwitch,Length=0.001,Units=km,switch=T !numEQ 115785
new line.CTR177660 bus1=BMT122813198.1,bus2=BMT122813240.1,Phases=1,LineCode=tieSwitch1,Length=0.001,Units=km,switch=T !numEQ 73854
new line.CTR193284 bus1=BMT122792989.3,bus2=BMT172575957.3,Phases=1,LineCode=tieSwitch1,Length=0.001,Units=km,switch=T !numEQ 213873
new line.CTR193480 bus1=BMT122803643.3,bus2=BMT122803741.3,Phases=1,LineCode=tieSwitch1,Length=0.001,Units=km,switch=T !numEQ 174857
new line.CTR193487 bus1=BMT150312283.1,bus2=BMT163327336.1,Phases=1,LineCode=tieSwitch1,Length=0.001,Units=km,switch=T !numEQ 212792
new line.CTR193536 bus1=BMT150312610.1,bus2=BMT169616333.1,Phases=1,LineCode=tieSwitch1,Length=0.001,Units=km,switch=T !numEQ 222818
new line.CTR11725 bus1=BMT150312377.1,bus2=BMT150312519.1,Phases=1,LineCode=tieSwitch1,Length=0.001,Units=km,switch=T !numEQ 74019
new line.CTR118090 bus1=BMT122766067.1,bus2=BMT122774551.1,Phases=1,LineCode=tieSwitch1,Length=0.001,Units=km,switch=T !numEQ 198986
new line.CTR127715 bus1=BMT122805456.2,bus2=BMT122805568.2,Phases=1,LineCode=tieSwitch1,Length=0.001,Units=km,switch=T !numEQ 116839
new line.CTR14210 bus1=BMT169730685.1.2.3,bus2=BMT171482963.1.2.3,Phases=3,LineCode=tieSwitch,Length=0.001,Units=km,switch=T !numEQ 85657
new line.CTR142485 bus1=BMT150314581.3,bus2=BMT152443404.3,Phases=1,LineCode=tieSwitch1,Length=0.001,Units=km,switch=T !numEQ 171792
new line.CTR142639 bus1=BMT150314583.3,bus2=BMT163307759.3,Phases=1,LineCode=tieSwitch1,Length=0.001,Units=km,switch=T !numEQ 140334
new line.CTR143360 bus1=BMT150314204.1,bus2=BMT150314223.1,Phases=1,LineCode=tieSwitch1,Length=0.001,Units=km,switch=T !numEQ 172593
new line.CTR149205 bus1=BMT122781026.1,bus2=BMT122781047.1,Phases=1,LineCode=tieSwitch1,Length=0.001,Units=km,switch=T !numEQ 173619
new line.CTR149807 bus1=BMT150313377.1,bus2=BMT150315036.1,Phases=1,LineCode=tieSwitch1,Length=0.001,Units=km,switch=T !numEQ 74477
new line.CTR167552 bus1=BMT172781962.3,bus2=BMT122802789.3,Phases=1,LineCode=tieSwitch1,Length=0.001,Units=km,switch=T !numEQ 73918
new line.CTR167566 bus1=BMT122799520.1.2.3,bus2=BMT122813086.1.2.3,Phases=3,LineCode=tieSwitch,Length=0.001,Units=km,switch=T !numEQ 73858
new line.CTR167573 bus1=BMT122799443.2,bus2=BMT170198812.2,Phases=1,LineCode=tieSwitch1,Length=0.001,Units=km,switch=T !numEQ 73605
new line.CTR167783 bus1=BMT122776903.1,bus2=BMT133769962.1,Phases=1,LineCode=tieSwitch1,Length=0.001,Units=km,switch=T !numEQ 173389
new line.CTR167790 bus1=BMT122772654.1,bus2=BMT122773354.1,Phases=1,LineCode=tieSwitch1,Length=0.001,Units=km,switch=T !numEQ 173271
new line.CTR167860 bus1=BMT150311340.1,bus2=BMT172661187.1,Phases=1,LineCode=tieSwitch1,Length=0.001,Units=km,switch=T !numEQ 101631
new line.CTR167937 bus1=BMT160792657.1,bus2=BMT122782706.1,Phases=1,LineCode=tieSwitch1,Length=0.001,Units=km,switch=T !numEQ 101627
new line.CTR168252 bus1=BMT150314131.3,bus2=BMT159120107.3,Phases=1,LineCode=tieSwitch1,Length=0.001,Units=km,switch=T !numEQ 73512
new line.CTR168497 bus1=BMT122798288.3,bus2=BMT122798736.3,Phases=1,LineCode=tieSwitch1,Length=0.001,Units=km,switch=T !numEQ 100799
new line.CTR168959 bus1=BMT122774992.1.2.3,bus2=BMT171126849.1.2.3,Phases=3,LineCode=tieSwitch,Length=0.001,Units=km,switch=T !numEQ 15801
new line.CTR169071 bus1=BMT122766004.2,bus2=BMT141627378.2,Phases=1,LineCode=tieSwitch1,Length=0.001,Units=km,switch=T !numEQ 104043
new line.CTR178045 bus1=BMT122772192.3,bus2=BMT122772430.3,Phases=1,LineCode=tieSwitch1,Length=0.001,Units=km,switch=T !numEQ 197187
new line.CTR178248 bus1=BMT150312402.3,bus2=BMT150312505.3,Phases=1,LineCode=tieSwitch1,Length=0.001,Units=km,switch=T !numEQ 173381
new line.CTR178374 bus1=BMT122780466.1.2.3,bus2=BMT122785464.1.2.3,Phases=3,LineCode=tieSwitch,Length=0.001,Units=km,switch=T !numEQ 201349
new line.CTR178486 bus1=BMT150311393.2,bus2=BMT150311397.2,Phases=1,LineCode=tieSwitch1,Length=0.001,Units=km,switch=T !numEQ 173380
new line.CTR178591 bus1=BMT122799044.3,bus2=BMT122816110.3,Phases=1,LineCode=tieSwitch1,Length=0.001,Units=km,switch=T !numEQ 197165
new line.CTR178920 bus1=BMT150315005.1.2.3,bus2=BMT160674793.1.2.3,Phases=3,LineCode=tieSwitch,Length=0.001,Units=km,switch=T !numEQ 207367
new line.CTR191436 bus1=BMT122766270.3,bus2=BMT172901682.3,Phases=1,LineCode=tieSwitch1,Length=0.001,Units=km,switch=T !numEQ 202794
new line.CTR191443 bus1=BMT150311956.3,bus2=BMT150311961.3,Phases=1,LineCode=tieSwitch1,Length=0.001,Units=km,switch=T !numEQ 212808
new line.CTR191562 bus1=BMT150312602.3,bus2=BMT150312606.3,Phases=1,LineCode=tieSwitch1,Length=0.001,Units=km,switch=T !numEQ 213892
new line.CTR191590 bus1=BMT122801557.2,bus2=BMT169960124.2,Phases=1,LineCode=tieSwitch1,Length=0.001,Units=km,switch=T !numEQ 213895
new line.CTR191597 bus1=BMT122799324.1,bus2=BMT160068138.1,Phases=1,LineCode=tieSwitch1,Length=0.001,Units=km,switch=T !numEQ 174717
new line.CTR191604 bus1=BMT122801620.2,bus2=BMT122801669.2,Phases=1,LineCode=tieSwitch1,Length=0.001,Units=km,switch=T !numEQ 213896
new line.CTR191667 bus1=BMT150312053.3,bus2=BMT171603706.3,Phases=1,LineCode=tieSwitch1,Length=0.001,Units=km,switch=T !numEQ 212765
new line.CTR191744 bus1=BMT122780277.2,bus2=BMT122780340.2,Phases=1,LineCode=tieSwitch1,Length=0.001,Units=km,switch=T !numEQ 199090
new line.CTR191758 bus1=BMT122770092.2,bus2=BMT122770421.2,Phases=1,LineCode=tieSwitch1,Length=0.001,Units=km,switch=T !numEQ 198976
new line.CTR191926 bus1=BMT150312446.3,bus2=BMT172558510.3,Phases=1,LineCode=tieSwitch1,Length=0.001,Units=km,switch=T !numEQ 214035
new line.CTR191933 bus1=BMT122775692.1,bus2=BMT122778639.1,Phases=1,LineCode=tieSwitch1,Length=0.001,Units=km,switch=T !numEQ 208130
new line.CTR192085 bus1=BMT150312724.1,bus2=BMT150312727.1,Phases=1,LineCode=tieSwitch1,Length=0.001,Units=km,switch=T !numEQ 153674
new line.CTR192099 bus1=BMT150312728.1,bus2=BMT150312750.1,Phases=1,LineCode=tieSwitch1,Length=0.001,Units=km,switch=T !numEQ 153675
new line.CTR192113 bus1=BMT150312730.1,bus2=BMT150312738.1,Phases=1,LineCode=tieSwitch1,Length=0.001,Units=km,switch=T !numEQ 153676
new line.CTR192136 bus1=BMT122773816.1,bus2=BMT122773886.1,Phases=1,LineCode=tieSwitch1,Length=0.001,Units=km,switch=T !numEQ 207638
new line.CTR192220 bus1=BMT122769980.2,bus2=BMT139973089.2,Phases=1,LineCode=tieSwitch1,Length=0.001,Units=km,switch=T !numEQ 196726
new line.CTR192262 bus1=BMT122806982.1,bus2=BMT122807388.1,Phases=1,LineCode=tieSwitch1,Length=0.001,Units=km,switch=T !numEQ 207364
new line.CTR192276 bus1=BMT122767068.1,bus2=BMT172398067.1,Phases=1,LineCode=tieSwitch1,Length=0.001,Units=km,switch=T !numEQ 214163
new line.CTR192353 bus1=BMT122768174.1,bus2=BMT173168520.1,Phases=1,LineCode=tieSwitch1,Length=0.001,Units=km,switch=T !numEQ 198979
new line.CTR192360 bus1=BMT122768335.1,bus2=BMT122768363.1,Phases=1,LineCode=tieSwitch1,Length=0.001,Units=km,switch=T !numEQ 198990
new line.CTR192402 bus1=BMT122768314.1,bus2=BMT122768377.1,Phases=1,LineCode=tieSwitch1,Length=0.001,Units=km,switch=T !numEQ 198988
new line.CTR192577 bus1=BMT122796181.1,bus2=BMT160082979.1,Phases=1,LineCode=tieSwitch1,Length=0.001,Units=km,switch=T !numEQ 211973
new line.CTR192591 bus1=BMT167961263.1,bus2=BMT167961306.1,Phases=1,LineCode=tieSwitch1,Length=0.001,Units=km,switch=T !numEQ 199097
new line.CTR101010 bus1=BMT122775741.1,bus2=BMT169621422.1,Phases=1,LineCode=tieSwitch1,Length=0.001,Units=km,switch=T !numEQ 196673
new line.CTR101262 bus1=BMT122808263.2,bus2=BMT170198039.2,Phases=1,LineCode=tieSwitch1,Length=0.001,Units=km,switch=T !numEQ 104023
new line.CTR114002 bus1=BMT122770113.2,bus2=BMT122770393.2,Phases=1,LineCode=tieSwitch1,Length=0.001,Units=km,switch=T !numEQ 195333
new line.CTR125356 bus1=BMT122788411.3,bus2=BMT172739325.3,Phases=1,LineCode=tieSwitch1,Length=0.001,Units=km,switch=T !numEQ 174634
new line.CTR125580 bus1=BMT150313411.1.2.3,bus2=BMT150314958.1.2.3,Phases=3,LineCode=tieSwitch,Length=0.001,Units=km,switch=T !numEQ 117619
new line.CTR126063 bus1=BMT150312364.1,bus2=BMT150312372.1,Phases=1,LineCode=tieSwitch1,Length=0.001,Units=km,switch=T !numEQ 171736
...
open line.CTR164465 term=1
new line.CTR1645 bus1=BMT122807829.3,bus2=BMT122811644.3,Phases=1,LineCode=tieSwitch1,Length=0.001,Units=km,switch=T !numEQ 104003
new line.CTR164710 bus1=BMT122795467.1,bus2=BMT140049641.1,Phases=1,LineCode=tieSwitch1,Length=0.001,Units=km,switch=T !numEQ 141104
new line.CTR165095 bus1=BMT150312138.3,bus2=BMT150312191.3,Phases=1,LineCode=tieSwitch1,Length=0.001,Units=km,switch=T !numEQ 79996
new line.CTR165522 bus1=BMT122808963.2,bus2=BMT170198143.2,Phases=1,LineCode=tieSwitch1,Length=0.001,Units=km,switch=T !numEQ 174498
new line.CTR165767 bus1=BMT122781621.1,bus2=BMT169971669.1,Phases=1,LineCode=tieSwitch1,Length=0.001,Units=km,switch=T !numEQ 174993
new line.CTR165774 bus1=BMT169967874.1,bus2=BMT170217962.1,Phases=1,LineCode=tieSwitch1,Length=0.001,Units=km,switch=T !numEQ 174994
new line.CTR165802 bus1=BMT122799289.3,bus2=BMT122815865.3,Phases=1,LineCode=tieSwitch1,Length=0.001,Units=km,switch=T !numEQ 74699
new line.CTR16583 bus1=BMT150314071.1.2.3,bus2=BMT172956481.1.2.3,Phases=3,LineCode=tieSwitch,Length=0.001,Units=km,switch=T !numEQ 174108
new line.CTR183015 bus1=BMT149014214.1.2.3,bus2=BMT172295756.1.2.3,Phases=3,LineCode=tieSwitch,Length=0.001,Units=km,switch=T !numEQ 174757
new line.CTR183428 bus1=BMT162776329.1,bus2=BMT162776337.1,Phases=1,LineCode=tieSwitch1,Length=0.001,Units=km,switch=T !numEQ 175302
new line.CTR183456 bus1=BMT150314113.3,bus2=BMT150314118.3,Phases=1,LineCode=tieSwitch1,Length=0.001,Units=km,switch=T !numEQ 175226
new line.CTR183666 bus1=BMT148973878.1.2.3,bus2=BMT172868591.1.2.3,Phases=3,LineCode=tieSwitch,Length=0.001,Units=km,switch=T !numEQ 173542
new line.CTR183897 bus1=BMT122789377.1,bus2=BMT122790868.1,Phases=1,LineCode=tieSwitch1,Length=0.001,Units=km,switch=T !numEQ 174608
new line.CTR184205 bus1=BMT122791603.2,bus2=BMT169990415.2,Phases=1,LineCode=tieSwitch1,Length=0.001,Units=km,switch=T !numEQ 174793
new line.CTR194551 bus1=BMT122782860.3,bus2=BMT122783854.3,Phases=1,LineCode=tieSwitch1,Length=0.001,Units=km,switch=T !numEQ 198970
new line.CTR194565 bus1=BMT122770736.2,bus2=BMT122770764.2,Phases=1,LineCode=tieSwitch1,Length=0.001,Units=km,switch=T !numEQ 203823
new line.CTR194572 bus1=BMT122773795.1,bus2=BMT172472876.1,Phases=1,LineCode=tieSwitch1,Length=0.001,Units=km,switch=T !numEQ 202783
new line.CTR194663 bus1=BMT122809187.2,bus2=BMT170198115.2,Phases=1,LineCode=tieSwitch1,Length=0.001,Units=km,switch=T !numEQ 213876
new line.CTR194691 bus1=BMT150313941.2,bus2=BMT159464158.2,Phases=1,LineCode=tieSwitch1,Length=0.001,Units=km,switch=T !numEQ 209830
new line.CTR194698 bus1=BMT150312404.3,bus2=BMT150312503.3,Phases=1,LineCode=tieSwitch1,Length=0.001,Units=km,switch=T !numEQ 213980
new line.CTR194838 bus1=BMT150312064.1,bus2=BMT150312079.1,Phases=1,LineCode=tieSwitch1,Length=0.001,Units=km,switch=T !numEQ 212761
new line.CTR195139 bus1=BMT122797497.1,bus2=BMT167412354.1,Phases=1,LineCode=tieSwitch1,Length=0.001,Units=km,switch=T !numEQ 198984
new line.CTR195293 bus1=BMT122810167.1,bus2=BMT122810223.1,Phases=1,LineCode=tieSwitch1,Length=0.001,Units=km,switch=T !numEQ 227535
new line.CTR195307 bus1=BMT150311545.1,bus2=BMT169868358.1,Phases=1,LineCode=tieSwitch1,Length=0.001,Units=km,switch=T !numEQ 227533
new line.CTR195314 bus1=BMT150312240.1,bus2=BMT150312243.1,Phases=1,LineCode=tieSwitch1,Length=0.001,Units=km,switch=T !numEQ 227534
new line.CTR195433 bus1=BMT150313552.3,bus2=BMT150314251.3,Phases=1,LineCode=tieSwitch1,Length=0.001,Units=km,switch=T !numEQ 174504
new line.CTR195461 bus1=BMT122785940.3,bus2=BMT122785982.3,Phases=1,LineCode=tieSwitch1,Length=0.001,Units=km,switch=T !numEQ 203850
new line.CTR111797 bus1=BMT162759185.1,bus2=BMT162759207.1,Phases=1,LineCode=tieSwitch1,Length=0.001,Units=km,switch=T !numEQ 102361
new line.CTR124929 bus1=BMT122799548.1.2.3,bus2=BMT151602828.1.2.3,Phases=3,LineCode=tieSwitch,Length=0.001,Units=km,switch=T !numEQ 101717
new line.CTR135513 bus1=BMT150311396.1.2.3,bus2=BMT170497027.1.2.3,Phases=3,LineCode=tieSwitch,Length=0.001,Units=km,switch=T !numEQ 106761
new line.CTR136031 bus1=BMT150312585.3,bus2=BMT165194565.3,Phases=1,LineCode=tieSwitch1,Length=0.001,Units=km,switch=T !numEQ 132000
new line.CTR151074 bus1=BMT122799583.1.2.3,bus2=BMT166354276.1.2.3,Phases=3,LineCode=tieSwitch,Length=0.001,Units=km,switch=T !numEQ 101718
new line.CTR151984 bus1=BMT122779234.3,bus2=BMT122779269.3,Phases=1,LineCode=tieSwitch1,Length=0.001,Units=km,switch=T !numEQ 199100
new line.CTR152082 bus1=BMT122779675.1.2.3,bus2=BMT122779864.1.2.3,Phases=3,LineCode=tieSwitch,Length=0.001,Units=km,switch=T !numEQ 125400
new line.CTR152236 bus1=BMT156744132.3,bus2=BMT150313847.3,Phases=1,LineCode=tieSwitch1,Length=0.001,Units=km,switch=T !numEQ 73562
open line.CTR152236 term=1
new line.CTR165851 bus1=BMT157425745.3,bus2=BMT157425750.3,Phases=1,LineCode=tieSwitch1,Length=0.001,Units=km,switch=T !numEQ 174999
new line.CTR16639 bus1=BMT122798470.2,bus2=BMT122798491.2,Phases=1,LineCode=tieSwitch1,Length=0.001,Units=km,switch=T !numEQ 100798
new line.CTR166684 bus1=BMT150312579.1.2.3,bus2=BMT150312580.1.2.3,Phases=3,LineCode=tieSwitch,Length=0.001,Units=km,switch=T !numEQ 127264
new line.CTR167090 bus1=BMT150311525.1,bus2=BMT150312253.1,Phases=1,LineCode=tieSwitch1,Length=0.001,Units=km,switch=T !numEQ 173394
new line.CTR167321 bus1=BMT122800108.2,bus2=BMT122807458.2,Phases=1,LineCode=tieSwitch1,Length=0.001,Units=km,switch=T !numEQ 196453
new line.CTR167335 bus1=BMT122780767.1.2.3,bus2=BMT155592848.1.2.3,Phases=3,LineCode=tieSwitch,Length=0.001,Units=km,switch=T !numEQ 119078
new line.CTR179543 bus1=BMT150314926.3,bus2=BMT150314928.3,Phases=1,LineCode=tieSwitch1,Length=0.001,Units=km,switch=T !numEQ 199934
new line.CTR179865 bus1=BMT160010795.2,bus2=BMT150314350.2,Phases=1,LineCode=tieSwitch1,Length=0.001,Units=km,switch=T !numEQ 73871
new line.CTR180803 bus1=BMT122769728.2,bus2=BMT122769777.2,Phases=1,LineCode=tieSwitch1,Length=0.001,Units=km,switch=T !numEQ 15351
new line.CTR181034 bus1=BMT122787165.1.2.3,bus2=BMT151077129.1.2.3,Phases=3,LineCode=tieSwitch,Length=0.001,Units=km,switch=T !numEQ 373386
new line.CTR198884 bus1=BMT122805085.2,bus2=BMT122805092.2,Phases=1,LineCode=tieSwitch1,Length=0.001,Units=km,switch=T !numEQ 213848
new line.CTR19908 bus1=BMT122779899.1.2.3,bus2=BMT122779906.1.2.3,Phases=3,LineCode=tieSwitch,Length=0.001,Units=km,switch=T !numEQ 85443
new line.CTR19915 bus1=BMT122779913.1.2.3,bus2=BMT160216367.1.2.3,Phases=3,LineCode=tieSwitch,Length=0.001,Units=km,switch=T !numEQ 85196
new line.CTR19922 bus1=BMT122780543.1.2.3,bus2=BMT173265885.1.2.3,Phases=3,LineCode=tieSwitch,Length=0.001,Units=km,switch=T !numEQ 91447
new line.CTR19929 bus1=BMT122781943.1.2.3,bus2=BMT122781950.1.2.3,Phases=3,LineCode=tieSwitch,Length=0.001,Units=km,switch=T !numEQ 73730
new line.CTR19936 bus1=BMT122781985.1.2.3,bus2=BMT167146337.1.2.3,Phases=3,LineCode=tieSwitch,Length=0.001,Units=km,switch=T !numEQ 91364
new line.CTR19950 bus1=BMT122782013.1.2.3,bus2=BMT122782531.1.2.3,Phases=3,LineCode=tieSwitch,Length=0.001,Units=km,switch=T !numEQ 91365
new line.CTR19971 bus1=BMT171669947.1.2.3,bus2=BMT122782839.1.2.3,Phases=3,LineCode=tieSwitch,Length=0.001,Units=km,switch=T !numEQ 85446
new line.CTR19978 bus1=BMT122779619.3,bus2=BMT167293661.3,Phases=1,LineCode=tieSwitch1,Length=0.001,Units=km,switch=T !numEQ 72461
new line.CTR19992 bus1=BMT122798337.1.2.3,bus2=BMT122798344.1.2.3,Phases=3,LineCode=tieSwitch,Length=0.001,Units=km,switch=T !numEQ 73793
new line.CTR19999 bus1=BMT122798358.1.2.3,bus2=BMT122798365.1.2.3,Phases=3,LineCode=tieSwitch,Length=0.001,Units=km,switch=T !numEQ 91366
new line.CTR20006 bus1=BMT122791785.1.2.3,bus2=BMT170524905.1.2.3,Phases=3,LineCode=tieSwitch,Length=0.001,Units=km,switch=T !numEQ 74433
new line.CTR20013 bus1=BMT122791953.3,bus2=BMT173071824.3,Phases=1,LineCode=tieSwitch1,Length=0.001,Units=km,switch=T !numEQ 74436
new line.CTR20020 bus1=BMT122791967.3,bus2=BMT172543430.3,Phases=1,LineCode=tieSwitch1,Length=0.001,Units=km,switch=T !numEQ 74437
new line.CTR20034 bus1=BMT172661027.1.2.3,bus2=BMT122767656.1.2.3,Phases=3,LineCode=tieSwitch,Length=0.001,Units=km,switch=T !numEQ 91464
new line.CTR20041 bus1=BMT122792429.2,bus2=BMT122795082.2,Phases=1,LineCode=tieSwitch1,Length=0.001,Units=km,switch=T !numEQ 74441
new line.CTR20055 bus1=BMT122792436.1.2.3,bus2=BMT172526868.1.2.3,Phases=3,LineCode=tieSwitch,Length=0.001,Units=km,switch=T !numEQ 74442
new line.CTR20069 bus1=BMT122792590.1,bus2=BMT122794529.1,Phases=1,LineCode=tieSwitch1,Length=0.001,Units=km,switch=T !numEQ 74444
new line.CTR20076 bus1=BMT122792639.1,bus2=BMT122794417.1,Phases=1,LineCode=tieSwitch1,Length=0.001,Units=km,switch=T !numEQ 74445
new line.CTR21777 bus1=BMT143714736.2,bus2=BMT143714883.2,Phases=1,LineCode=tieSwitch1,Length=0.001,Units=km,switch=T !numEQ 73873
new line.CTR21784 bus1=BMT122809488.3,bus2=BMT168404750.3,Phases=1,LineCode=tieSwitch1,Length=0.001,Units=km,switch=T !numEQ 73861
new line.CTR21791 bus1=BMT122809614.3,bus2=BMT169933070.3,Phases=1,LineCode=tieSwitch1,Length=0.001,Units=km,switch=T !numEQ 73891
new line.CTR21798 bus1=BMT122808249.3,bus2=BMT122809376.3,Phases=1,LineCode=tieSwitch1,Length=0.001,Units=km,switch=T !numEQ 73921
new line.CTR21812 bus1=BMT122808543.2,bus2=BMT170198060.2,Phases=1,LineCode=tieSwitch1,Length=0.001,Units=km,switch=T !numEQ 73925
new line.CTR21819 bus1=BMT122808641.2,bus2=BMT170198089.2,Phases=1,LineCode=tieSwitch1,Length=0.001,Units=km,switch=T !numEQ 74004
new line.CTR21826 bus1=BMT122808844.2,bus2=BMT172275295.2,Phases=1,LineCode=tieSwitch1,Length=0.001,Units=km,switch=T !numEQ 73932
new line.CTR21833 bus1=BMT122808361.1,bus2=BMT161059581.1,Phases=1,LineCode=tieSwitch1,Length=0.001,Units=km,switch=T !numEQ 73938
new line.CTR21840 bus1=BMT122811728.3,bus2=BMT168914307.3,Phases=1,LineCode=tieSwitch1,Length=0.001,Units=km,switch=T !numEQ 73889
new line.CTR21847 bus1=BMT122811826.3,bus2=BMT135211066.3,Phases=1,LineCode=tieSwitch1,Length=0.001,Units=km,switch=T !numEQ 73898
new line.CTR21854 bus1=BMT122811882.3,bus2=BMT169763449.3,Phases=1,LineCode=tieSwitch1,Length=0.001,Units=km,switch=T !numEQ 73872
new line.CTR21861 bus1=BMT122812799.1,bus2=BMT151930706.1,Phases=1,LineCode=tieSwitch1,Length=0.001,Units=km,switch=T !numEQ 74497
new line.CTR172326 bus1=BMT122808242.1,bus2=BMT122809390.1,Phases=1,LineCode=tieSwitch1,Length=0.001,Units=km,switch=T !numEQ 201395
new line.CTR172340 bus1=BMT150313025.2,bus2=BMT150313180.2,Phases=1,LineCode=tieSwitch1,Length=0.001,Units=km,switch=T !numEQ 205653
new line.CTR172347 bus1=BMT122779528.3,bus2=BMT122785674.3,Phases=1,LineCode=tieSwitch1,Length=0.001,Units=km,switch=T !numEQ 199099
new line.CTR172354 bus1=BMT122767964.1,bus2=BMT122768867.1,Phases=1,LineCode=tieSwitch1,Length=0.001,Units=km,switch=T !numEQ 198998
new line.CTR172410 bus1=BMT122769231.3,bus2=BMT122769378.3,Phases=1,LineCode=tieSwitch1,Length=0.001,Units=km,switch=T !numEQ 172774
new line.CTR172424 bus1=BMT122773683.1,bus2=BMT172501239.1,Phases=1,LineCode=tieSwitch1,Length=0.001,Units=km,switch=T !numEQ 201987
new line.CTR184394 bus1=BMT122789636.1,bus2=BMT122790259.1,Phases=1,LineCode=tieSwitch1,Length=0.001,Units=km,switch=T !numEQ 174611
new line.CTR184513 bus1=BMT150312984.1,bus2=BMT168432099.1,Phases=1,LineCode=tieSwitch1,Length=0.001,Units=km,switch=T !numEQ 175240
new line.CTR185178 bus1=BMT122774719.2,bus2=BMT172294181.2,Phases=1,LineCode=tieSwitch1,Length=0.001,Units=km,switch=T !numEQ 174626
new line.CTR185927 bus1=BMT122775867.1,bus2=BMT172730260.1,Phases=1,LineCode=tieSwitch1,Length=0.001,Units=km,switch=T !numEQ 196674
new line.CTR186172 bus1=BMT122776896.1,bus2=BMT173078111.1,Phases=1,LineCode=tieSwitch1,Length=0.001,Units=km,switch=T !numEQ 199959
new line.CTR186200 bus1=BMT122768545.1,bus2=BMT122768811.1,Phases=1,LineCode=tieSwitch1,Length=0.001,Units=km,switch=T !numEQ 198978
new line.CTR186214 bus1=BMT150313153.2,bus2=BMT150313174.2,Phases=1,LineCode=tieSwitch1,Length=0.001,Units=km,switch=T !numEQ 205652
new line.CTR20083 bus1=BMT122792702.1.2.3,bus2=BMT172757404.1.2.3,Phases=3,LineCode=tieSwitch,Length=0.001,Units=km,switch=T !numEQ 74446
new line.CTR20090 bus1=BMT122792821.3,bus2=BMT172483380.3,Phases=1,LineCode=tieSwitch1,Length=0.001,Units=km,switch=T !numEQ 74449
new line.CTR20097 bus1=BMT122792835.2,bus2=BMT164878202.2,Phases=1,LineCode=tieSwitch1,Length=0.001,Units=km,switch=T !numEQ 74451
new line.CTR20111 bus1=BMT122791932.2,bus2=BMT173099968.2,Phases=1,LineCode=tieSwitch1,Length=0.001,Units=km,switch=T !numEQ 74435
new line.CTR20125 bus1=BMT122791442.2,bus2=BMT122791575.2,Phases=1,LineCode=tieSwitch1,Length=0.001,Units=km,switch=T !numEQ 74421
new line.CTR20132 bus1=BMT122787060.3,bus2=BMT170032738.3,Phases=1,LineCode=tieSwitch1,Length=0.001,Units=km,switch=T !numEQ 74418
new line.CTR20139 bus1=BMT122787081.2,bus2=BMT169931241.2,Phases=1,LineCode=tieSwitch1,Length=0.001,Units=km,switch=T !numEQ 15303
new line.CTR20237 bus1=BMT122785856.1.2.3,bus2=BMT168457377.1.2.3,Phases=3,LineCode=tieSwitch,Length=0.001,Units=km,switch=T !numEQ 74415
...