2024_89_CemigReconfigurationCases/1_SEsCemig/LBD01/LBD01Reguladores.dss
!revband Bandwidth for operating in the reverse direction.
!revDelay Time Delay in seconds (s) for executing the reversing action once the threshold for reversing has been exceeded. Default is 60 s.
!reversible {Yes |No*} to LTC on a substation transformer. the reverse direction. Default is No.Typically applies only to line regulators and not to LTC on a substation transformer.
!revNeutral {Yes | No*} Default is no. Set this to Yes if you want the regulator to go to neutral in the reverse direction
!revThreshold  kW reverse power threshold for reversing the direction of the regulator. Default is 100.0 kw.
!revvreg Voltage setting in volts for operation in the reverse direction.
!tapdelay Delay in sec between tap changes. Default is 2. This is how long it takes between changes after the first change.
!vlimit Voltage Limit for bus to which regulated winding is connected (e.g. first customer). Default is 0.0. Set to a value greater then zero to activate this function

new transformer.RT1078-1 Phases=1,windings=2,buses=[BMT122766767.1.0 BMT122766781.1.0],conns=[LN LN],kvs=[7.967 7.967],kvas=[750.000000000 750.000000000],xhl=0.500000000,%loadloss=0.124000000,%noloadloss=0.0393
new RegControl.RC1078-1 transformer=RT1078-1,winding=2,PTphase=1,ptratio=66.4,band=3,vreg=123
new transformer.RT1078-2 Phases=1,windings=2,buses=[BMT122766767.2.0 BMT122766781.2.0],conns=[LN LN],kvs=[7.967 7.967],kvas=[750.000000000 750.000000000],xhl=0.500000000,%loadloss=0.124000000,%noloadloss=0.0393
new RegControl.RC1078-2 transformer=RT1078-2,winding=2,PTphase=1,ptratio=66.4,band=3,vreg=123
new transformer.RT1078-3 Phases=1,windings=2,buses=[BMT122766767.3.0 BMT122766781.3.0],conns=[LN LN],kvs=[7.967 7.967],kvas=[750.000000000 750.000000000],xhl=0.500000000,%loadloss=0.124000000,%noloadloss=0.0393
new RegControl.RC1078-3 transformer=RT1078-3,winding=2,PTphase=1,ptratio=66.4,band=3,vreg=123
new transformer.RT1155-1 Phases=1,windings=2,buses=[BMT122787004.1.0 BMT122787011.1.0],conns=[LN LN],kvs=[7.967 7.967],kvas=[750.000000000 750.000000000],xhl=0.500000000,%loadloss=0.124000000,%noloadloss=0.0393
new RegControl.RC1155-1 transformer=RT1155-1,winding=2,PTphase=1,ptratio=66.4,band=3,vreg=123
new transformer.RT1155-2 Phases=1,windings=2,buses=[BMT122787004.2.0 BMT122787011.2.0],conns=[LN LN],kvs=[7.967 7.967],kvas=[750.000000000 750.000000000],xhl=0.500000000,%loadloss=0.124000000,%noloadloss=0.0393
new RegControl.RC1155-2 transformer=RT1155-2,winding=2,PTphase=1,ptratio=66.4,band=3,vreg=123
new transformer.RT1155-3 Phases=1,windings=2,buses=[BMT122787004.3.0 BMT122787011.3.0],conns=[LN LN],kvs=[7.967 7.967],kvas=[750.000000000 750.000000000],xhl=0.500000000,%loadloss=0.124000000,%noloadloss=0.0393
new RegControl.RC1155-3 transformer=RT1155-3,winding=2,PTphase=1,ptratio=66.4,band=3,vreg=123
new transformer.RT1162-1 Phases=1,windings=2,buses=[BMT150311383.1.0 BMT171681465.1.0],conns=[LN LN],kvs=[7.967 7.967],kvas=[750.000000000 750.000000000],xhl=0.500000000,%loadloss=0.124000000,%noloadloss=0.0393
new RegControl.RC1162-1 transformer=RT1162-1,winding=2,PTphase=1,ptratio=66.4,band=3,vreg=123
new transformer.RT1162-2 Phases=1,windings=2,buses=[BMT150311383.2.0 BMT171681465.2.0],conns=[LN LN],kvs=[7.967 7.967],kvas=[750.000000000 750.000000000],xhl=0.500000000,%loadloss=0.124000000,%noloadloss=0.0393
new RegControl.RC1162-2 transformer=RT1162-2,winding=2,PTphase=1,ptratio=66.4,band=3,vreg=123
new transformer.RT1162-3 Phases=1,windings=2,buses=[BMT150311383.3.0 BMT171681465.3.0],conns=[LN LN],kvs=[7.967 7.967],kvas=[750.000000000 750.000000000],xhl=0.500000000,%loadloss=0.124000000,%noloadloss=0.0393
new RegControl.RC1162-3 transformer=RT1162-3,winding=2,PTphase=1,ptratio=66.4,band=3,vreg=123
new transformer.RT1239-1 Phases=1,windings=2,buses=[BMT122799716.1.0 BMT146177427.1.0],conns=[LN LN],kvs=[7.967 7.967],kvas=[750.000000000 750.000000000],xhl=0.500000000,%loadloss=0.124000000,%noloadloss=0.0393
new RegControl.RC1239-1 transformer=RT1239-1,winding=2,PTphase=1,ptratio=66.4,band=3,vreg=123
new transformer.RT1239-2 Phases=1,windings=2,buses=[BMT122799716.2.0 BMT146177427.2.0],conns=[LN LN],kvs=[7.967 7.967],kvas=[750.000000000 750.000000000],xhl=0.500000000,%loadloss=0.124000000,%noloadloss=0.0393
new RegControl.RC1239-2 transformer=RT1239-2,winding=2,PTphase=1,ptratio=66.4,band=3,vreg=123
new transformer.RT1239-3 Phases=1,windings=2,buses=[BMT122799716.3.0 BMT146177427.3.0],conns=[LN LN],kvs=[7.967 7.967],kvas=[750.000000000 750.000000000],xhl=0.500000000,%loadloss=0.124000000,%noloadloss=0.0393
new RegControl.RC1239-3 transformer=RT1239-3,winding=2,PTphase=1,ptratio=66.4,band=3,vreg=123
new transformer.RT189-1 Phases=1,windings=2,buses=[BMT153929614.1.0 BMT153929843.1.0],conns=[LN LN],kvs=[7.967 7.967],kvas=[750.000000000 750.000000000],xhl=0.500000000,%loadloss=0.124000000,%noloadloss=0.0393
new RegControl.RC189-1 transformer=RT189-1,winding=2,PTphase=1,ptratio=66.4,band=3,vreg=123
new transformer.RT189-2 Phases=1,windings=2,buses=[BMT153929614.2.0 BMT153929843.2.0],conns=[LN LN],kvs=[7.967 7.967],kvas=[750.000000000 750.000000000],xhl=0.500000000,%loadloss=0.124000000,%noloadloss=0.0393
...