2024_89_CemigReconfigurationCases/1_SEsCemig/LBD01/LBD01Transformadores.dss
new transformer.100002 Phases=1,Windings=3,Buses=[BMT158922151.3 BBT427273.1.0 BBT427273.0.2],Conns=[wye wye wye],kvs=[7.967 0.12 0.12],kvas=[10.000000000 10.000000000 10.000000000],Taps=[1,1.000000000,1.000000000],%loadloss=1.800000000,%noloadloss=0.450000000
new transformer.100009 Phases=1,Windings=3,Buses=[BMT173130609.1 BBT427287.1.0 BBT427287.0.2],Conns=[wye wye wye],kvs=[7.967 0.12 0.12],kvas=[15.000000000 15.000000000 15.000000000],Taps=[1,1.000000000,1.000000000],%loadloss=1.600000000,%noloadloss=0.400000000
new transformer.100016 Phases=1,Windings=3,Buses=[BMT158922150.3 BBT427301.1.0 BBT427301.0.2],Conns=[wye wye wye],kvs=[7.967 0.12 0.12],kvas=[15.000000000 15.000000000 15.000000000],Taps=[1,1.000000000,1.000000000],%loadloss=1.600000000,%noloadloss=0.400000000
new transformer.100023 Phases=1,Windings=3,Buses=[BMT167126765.3 BBT427315.1.0 BBT427315.0.2],Conns=[wye wye wye],kvs=[7.967 0.12 0.12],kvas=[35.000000000 35.000000000 35.000000000],Taps=[1,1.000000000,1.000000000],%loadloss=1.293000000,%noloadloss=0.342857000
new transformer.100030 Phases=1,Windings=3,Buses=[BMT167807258.2 BBT427329.1.0 BBT427329.0.2],Conns=[wye wye wye],kvs=[7.967 0.12 0.12],kvas=[15.000000000 15.000000000 15.000000000],Taps=[1,1.000000000,1.000000000],%loadloss=1.600000000,%noloadloss=0.400000000
new transformer.100037 Phases=1,Windings=3,Buses=[BMT167126768.3 BBT427343.1.0 BBT427343.0.2],Conns=[wye wye wye],kvs=[7.967 0.12 0.12],kvas=[10.000000000 10.000000000 10.000000000],Taps=[1,1.000000000,1.000000000],%loadloss=1.800000000,%noloadloss=0.450000000
new transformer.100044 Phases=1,Windings=3,Buses=[BMT158922146.1 BBT427357.1.0 BBT427357.0.2],Conns=[wye wye wye],kvs=[7.967 0.12 0.12],kvas=[25.000000000 25.000000000 25.000000000],Taps=[1,1.000000000,1.000000000],%loadloss=1.420000000,%noloadloss=0.320000000
new transformer.100051 Phases=1,Windings=3,Buses=[BMT172855383.3 BBT427371.1.0 BBT427371.0.2],Conns=[wye wye wye],kvs=[7.967 0.12 0.12],kvas=[15.000000000 15.000000000 15.000000000],Taps=[1,1.000000000,1.000000000],%loadloss=1.600000000,%noloadloss=0.400000000
new transformer.100058 Phases=1,Windings=3,Buses=[BMT158922158.1 BBT427385.1.0 BBT427385.0.2],Conns=[wye wye wye],kvs=[7.967 0.12 0.12],kvas=[5.000000000 5.000000000 5.000000000],Taps=[1,1.000000000,1.000000000],%loadloss=1.900000000,%noloadloss=0.600000000
new transformer.1000600 Phases=1,Windings=3,Buses=[BMT172721753.1 BBT115625472.1.0 BBT115625472.0.2],Conns=[wye wye wye],kvs=[7.967 0.12 0.12],kvas=[15.000000000 15.000000000 15.000000000],Taps=[1,1.000000000,1.000000000],%loadloss=1.600000000,%noloadloss=0.400000000
new transformer.100065 Phases=1,Windings=3,Buses=[BMT122774187.2 BBT427399.1.0 BBT427399.0.2],Conns=[wye wye wye],kvs=[7.967 0.12 0.12],kvas=[10.000000000 10.000000000 10.000000000],Taps=[1,1.000000000,1.000000000],%loadloss=1.800000000,%noloadloss=0.450000000
new transformer.100072 Phases=1,Windings=3,Buses=[BMT164464141.2 BBT427413.1.0 BBT427413.0.2],Conns=[wye wye wye],kvs=[7.967 0.12 0.12],kvas=[15.000000000 15.000000000 15.000000000],Taps=[1,1.000000000,1.000000000],%loadloss=1.600000000,%noloadloss=0.400000000
new transformer.100079 Phases=1,Windings=3,Buses=[BMT164464139.2 BBT427427.1.0 BBT427427.0.2],Conns=[wye wye wye],kvs=[7.967 0.12 0.12],kvas=[15.000000000 15.000000000 15.000000000],Taps=[1,1.000000000,1.000000000],%loadloss=1.600000000,%noloadloss=0.400000000
new transformer.1000824 Phases=1,Windings=3,Buses=[BMT162346641.1 BBT103258964.1.0 BBT103258964.0.2],Conns=[wye wye wye],kvs=[7.967 0.12 0.12],kvas=[5.000000000 5.000000000 5.000000000],Taps=[1,1.000000000,1.000000000],%loadloss=1.900000000,%noloadloss=0.600000000
new transformer.100086 Phases=1,Windings=3,Buses=[BMT168470271.2 BBT427441.1.0 BBT427441.0.2],Conns=[wye wye wye],kvs=[7.967 0.12 0.12],kvas=[25.000000000 25.000000000 25.000000000],Taps=[1,1.000000000,1.000000000],%loadloss=1.420000000,%noloadloss=0.320000000
new transformer.1000880 Phases=1,Windings=3,Buses=[BMT150313105.2 BBT101256726.1.0 BBT101256726.0.2],Conns=[wye wye wye],kvs=[7.967 0.12 0.12],kvas=[10.000000000 10.000000000 10.000000000],Taps=[1,1.000000000,1.000000000],%loadloss=1.800000000,%noloadloss=0.450000000
new transformer.100100 Phases=1,Windings=3,Buses=[BMT169906713.2 BBT427469.1.0 BBT427469.0.2],Conns=[wye wye wye],kvs=[7.967 0.12 0.12],kvas=[15.000000000 15.000000000 15.000000000],Taps=[1,1.000000000,1.000000000],%loadloss=1.600000000,%noloadloss=0.400000000
new transformer.100107 Phases=1,Windings=3,Buses=[BMT168470265.2 BBT427483.1.0 BBT427483.0.2],Conns=[wye wye wye],kvs=[7.967 0.12 0.12],kvas=[10.000000000 10.000000000 10.000000000],Taps=[1,1.000000000,1.000000000],%loadloss=1.800000000,%noloadloss=0.450000000
new transformer.100114 Phases=1,Windings=3,Buses=[BMT169906710.2 BBT427497.1.0 BBT427497.0.2],Conns=[wye wye wye],kvs=[7.967 0.12 0.12],kvas=[15.000000000 15.000000000 15.000000000],Taps=[1,1.000000000,1.000000000],%loadloss=1.600000000,%noloadloss=0.400000000
...